../datasets/input/HSP90_3/poses/HSP90_21/ligand.pdb
 OpenBabel03111910153D

 33 36  0  0  0  0  0  0  0  0999 V2000
   -3.6160   10.5400   25.2340 O   0  0  0  0  0  0  0  0  0  0  0  0
   -2.3270   10.4350   24.7940 C   0  0  0  0  0  0  0  0  0  0  0  0
   -1.9770   11.0260   23.5650 C   0  0  0  0  0  0  0  0  0  0  0  0
   -0.6490   10.9730   23.0980 C   0  0  0  0  0  0  0  0  0  0  0  0
   -0.3430   11.5500   21.8980 O   0  0  0  0  0  0  0  0  0  0  0  0
    0.3530   10.3330   23.8640 C   0  0  0  0  0  0  0  0  0  0  0  0
   -0.0060    9.7370   25.0900 C   0  0  0  0  0  0  0  0  0  0  0  0
   -1.3370    9.7730   25.5610 C   0  0  0  0  0  0  0  0  0  0  0  0
   -1.6420    9.1560   26.8050 N   0  0  0  0  0  0  0  0  0  0  0  0
   -2.5630    9.5450   27.7170 C   0  0  0  0  0  0  0  0  0  0  0  0
   -3.2780   10.5440   27.6650 O   0  0  0  0  0  0  0  0  0  0  0  0
   -2.5600    8.6310   28.7070 N   0  0  0  0  0  0  0  0  0  0  0  0
   -1.6160    7.6370   28.4340 C   0  0  0  0  0  0  0  0  0  0  0  0
   -1.2460    6.5000   29.1680 C   0  0  0  0  0  0  0  0  0  0  0  0
   -0.2250    5.6780   28.6260 C   0  0  0  0  0  0  0  0  0  0  0  0
    0.3910    6.0260   27.3920 C   0  0  0  0  0  0  0  0  0  0  0  0
   -0.0020    7.1810   26.6740 C   0  0  0  0  0  0  0  0  0  0  0  0
   -1.0280    7.9640   27.2300 C   0  0  0  0  0  0  0  0  0  0  0  0
    0.2340    4.4330   29.3710 C   0  0  0  0  0  0  0  0  0  0  0  0
   -0.1920    4.4950   30.6320 F   0  0  0  0  0  0  0  0  0  0  0  0
   -0.2510    3.3250   28.8080 F   0  0  0  0  0  0  0  0  0  0  0  0
    1.5650    4.3540   29.3700 F   0  0  0  0  0  0  0  0  0  0  0  0
    1.7520   10.2690   23.4080 C   0  0  0  0  0  0  0  0  0  0  0  0
    2.2810    9.0390   22.9610 C   0  0  0  0  0  0  0  0  0  0  0  0
    3.6140    8.9440   22.5160 C   0  0  0  0  0  0  0  0  0  0  0  0
    4.4360   10.0850   22.5170 C   0  0  0  0  0  0  0  0  0  0  0  0
    6.0700    9.9750   21.9740 Cl  0  0  0  0  0  0  0  0  0  0  0  0
    3.9240   11.3170   22.9660 C   0  0  0  0  0  0  0  0  0  0  0  0
    2.5900   11.4110   23.4110 C   0  0  0  0  0  0  0  0  0  0  0  0
    2.0060   12.9400   23.9690 Cl  0  0  0  0  0  0  0  0  0  0  0  0
   -4.1940   10.9510   24.6090 H   0  0  0  0  0  0  0  0  0  0  0  0
   -1.0950   11.9020   21.4480 H   0  0  0  0  0  0  0  0  0  0  0  0
   -3.1390    8.6440   29.5340 H   0  0  0  0  0  0  0  0  0  0  0  0
  2  1  1  0  0  0  0
  2  8  2  0  0  0  0
  3  2  1  0  0  0  0
  4  3  2  0  0  0  0
  4  6  1  0  0  0  0
  5  4  1  0  0  0  0
  6  7  2  0  0  0  0
  7  8  1  0  0  0  0
  8  9  1  0  0  0  0
  9 18  1  0  0  0  0
  9 10  1  0  0  0  0
 10 12  1  0  0  0  0
 11 10  2  0  0  0  0
 12 33  1  0  0  0  0
 13 12  1  0  0  0  0
 13 14  2  0  0  0  0
 15 14  1  0  0  0  0
 15 19  1  0  0  0  0
 16 15  2  0  0  0  0
 17 18  2  0  0  0  0
 17 16  1  0  0  0  0
 18 13  1  0  0  0  0
 19 20  1  0  0  0  0
 21 19  1  0  0  0  0
 22 19  1  0  0  0  0
 23 29  1  0  0  0  0
 23  6  1  0  0  0  0
 24 23  2  0  0  0  0
 25 26  2  0  0  0  0
 25 24  1  0  0  0  0
 26 28  1  0  0  0  0
 27 26  1  0  0  0  0
 28 29  2  0  0  0  0
 29 30  1  0  0  0  0
 31  1  1  0  0  0  0
 32  5  1  0  0  0  0
M  END
$$$$
