../datasets/input/FXR_2/poses/FXR77/ligand.pdb
 OpenBabel03111910173D

 57 61  0  0  0  0  0  0  0  0999 V2000
   40.6800   14.6400    1.4940 N   0  0  0  0  0  0  0  0  0  0  0  0
   44.5780   11.8240    2.8080 N   0  0  0  0  0  0  0  0  0  0  0  0
   35.7530   18.6530   -0.6550 C   0  0  0  0  0  0  0  0  0  0  0  0
   36.6900   17.7720    0.1190 C   0  0  0  0  0  0  0  0  0  0  0  0
   38.0780   18.0000    0.0750 C   0  0  0  0  0  0  0  0  0  0  0  0
   38.9660   17.1670    0.7870 C   0  0  0  0  0  0  0  0  0  0  0  0
   38.4840   16.0180    1.4480 C   0  0  0  0  0  0  0  0  0  0  0  0
   39.4120   15.0290    2.1380 C   0  0  0  0  0  0  0  0  0  0  0  0
   41.6630   14.0430    2.1960 C   0  0  0  0  0  0  0  0  0  0  0  0
   42.8360   13.6220    1.2790 C   0  0  0  0  0  0  0  0  0  0  0  0
   42.8530   12.1040    1.0610 C   0  0  0  0  0  0  0  0  0  0  0  0
   43.2860   11.3400    2.3050 C   0  0  0  0  0  0  0  0  0  0  0  0
   44.7110   13.2890    2.9970 C   0  0  0  0  0  0  0  0  0  0  0  0
   44.2280   14.0760    1.7630 C   0  0  0  0  0  0  0  0  0  0  0  0
   44.3060   10.4560    5.1820 C   0  0  0  0  0  0  0  0  0  0  0  0
   43.9050   11.6140    5.8770 C   0  0  0  0  0  0  0  0  0  0  0  0
   42.9300   11.5410    6.8840 C   0  0  0  0  0  0  0  0  0  0  0  0
   42.3420   10.3190    7.2070 C   0  0  0  0  0  0  0  0  0  0  0  0
   42.7540    9.1610    6.5470 C   0  0  0  0  0  0  0  0  0  0  0  0
   43.7430    9.2000    5.5410 C   0  0  0  0  0  0  0  0  0  0  0  0
   42.3830   14.2810    0.0070 C   0  0  0  0  0  0  0  0  0  0  0  0
   43.0810   14.3380   -1.2110 C   0  0  0  0  0  0  0  0  0  0  0  0
   42.4140   14.8500   -2.3380 C   0  0  0  0  0  0  0  0  0  0  0  0
   41.0650   15.2500   -2.2360 C   0  0  0  0  0  0  0  0  0  0  0  0
   40.3770   15.1820   -1.0070 C   0  0  0  0  0  0  0  0  0  0  0  0
   41.0780   14.7450    0.1340 C   0  0  0  0  0  0  0  0  0  0  0  0
   37.0950   15.7850    1.4890 C   0  0  0  0  0  0  0  0  0  0  0  0
   36.2080   16.6680    0.8490 C   0  0  0  0  0  0  0  0  0  0  0  0
   34.5320   18.3880   -0.6780 O   0  5  0  0  0  0  0  0  0  0  0  0
   36.1870   19.5430   -1.4140 O   0  0  0  0  0  0  0  0  0  0  0  0
   41.6710   13.8620    3.4180 O   0  0  0  0  0  0  0  0  0  0  0  0
   45.6170    9.4960    3.0130 O   0  0  0  0  0  0  0  0  0  0  0  0
   46.6380   11.4410    4.2910 O   0  0  0  0  0  0  0  0  0  0  0  0
   44.2080    7.6950    4.8270 Cl  0  0  0  0  0  0  0  0  0  0  0  0
   43.3400   14.9940   -3.9900 Br  0  0  0  0  0  0  0  0  0  0  0  0
   45.4540   10.7170    3.8100 S   0  0  0  0  0  0  0  0  0  0  0  0
   41.9960    7.7020    7.0040 Cl  0  0  0  0  0  0  0  0  0  0  0  0
   38.4430   18.8220   -0.5210 H   0  0  0  0  0  0  0  0  0  0  0  0
   40.0270   17.3600    0.7500 H   0  0  0  0  0  0  0  0  0  0  0  0
   39.6330   15.4570    3.1180 H   0  0  0  0  0  0  0  0  0  0  0  0
   38.8600   14.1120    2.3430 H   0  0  0  0  0  0  0  0  0  0  0  0
   43.5140   11.8490    0.2330 H   0  0  0  0  0  0  0  0  0  0  0  0
   41.8590   11.7660    0.7720 H   0  0  0  0  0  0  0  0  0  0  0  0
   42.5350   11.4080    3.0930 H   0  0  0  0  0  0  0  0  0  0  0  0
   43.3720   10.2860    2.0560 H   0  0  0  0  0  0  0  0  0  0  0  0
   45.7530   13.5390    3.2000 H   0  0  0  0  0  0  0  0  0  0  0  0
   44.1440   13.6070    3.8670 H   0  0  0  0  0  0  0  0  0  0  0  0
   44.2250   15.1440    1.9820 H   0  0  0  0  0  0  0  0  0  0  0  0
   44.9530   13.9330    0.9610 H   0  0  0  0  0  0  0  0  0  0  0  0
   44.3620   12.5590    5.6530 H   0  0  0  0  0  0  0  0  0  0  0  0
   42.6190   12.4100    7.4290 H   0  0  0  0  0  0  0  0  0  0  0  0
   41.5790   10.2630    7.9690 H   0  0  0  0  0  0  0  0  0  0  0  0
   44.0970   13.9890   -1.2870 H   0  0  0  0  0  0  0  0  0  0  0  0
   40.5510   15.6250   -3.1010 H   0  0  0  0  0  0  0  0  0  0  0  0
   39.3340   15.4550   -0.9740 H   0  0  0  0  0  0  0  0  0  0  0  0
   36.6980   14.9200    1.9970 H   0  0  0  0  0  0  0  0  0  0  0  0
   35.1500   16.4720    0.8840 H   0  0  0  0  0  0  0  0  0  0  0  0
  1  8  1  0  0  0  0
  1  9  1  0  0  0  0
  1 26  1  0  0  0  0
  2 12  1  0  0  0  0
  2 13  1  0  0  0  0
  2 36  1  0  0  0  0
  3  4  1  0  0  0  0
  3 29  1  0  0  0  0
  3 30  2  0  0  0  0
  4  5  1  0  0  0  0
  4 28  2  0  0  0  0
  5  6  2  0  0  0  0
  5 38  1  0  0  0  0
  6  7  1  0  0  0  0
  6 39  1  0  0  0  0
  7  8  1  0  0  0  0
  7 27  2  0  0  0  0
  8 40  1  0  0  0  0
  8 41  1  0  0  0  0
  9 10  1  0  0  0  0
  9 31  2  0  0  0  0
 10 11  1  0  0  0  0
 10 14  1  0  0  0  0
 10 21  1  0  0  0  0
 11 12  1  0  0  0  0
 11 42  1  0  0  0  0
 11 43  1  0  0  0  0
 12 44  1  0  0  0  0
 12 45  1  0  0  0  0
 13 14  1  0  0  0  0
 13 46  1  0  0  0  0
 13 47  1  0  0  0  0
 14 48  1  0  0  0  0
 14 49  1  0  0  0  0
 15 16  1  0  0  0  0
 15 20  2  0  0  0  0
 15 36  1  0  0  0  0
 16 17  2  0  0  0  0
 16 50  1  0  0  0  0
 17 18  1  0  0  0  0
 17 51  1  0  0  0  0
 18 19  2  0  0  0  0
 18 52  1  0  0  0  0
 19 20  1  0  0  0  0
 19 37  1  0  0  0  0
 20 34  1  0  0  0  0
 21 22  1  0  0  0  0
 21 26  2  0  0  0  0
 22 23  2  0  0  0  0
 22 53  1  0  0  0  0
 23 24  1  0  0  0  0
 23 35  1  0  0  0  0
 24 25  2  0  0  0  0
 24 54  1  0  0  0  0
 25 26  1  0  0  0  0
 25 55  1  0  0  0  0
 27 28  1  0  0  0  0
 27 56  1  0  0  0  0
 28 57  1  0  0  0  0
 32 36  2  0  0  0  0
 33 36  2  0  0  0  0
M  CHG  1  29  -1
M  END
$$$$
