../datasets/input/FXR_1/poses/FXR100/ligand.pdb
 OpenBabel03111910173D

 57 61  0  0  0  0  0  0  0  0999 V2000
   40.0970   14.9070    1.3250 N   0  0  0  0  0  0  0  0  0  0  0  0
   36.4060   19.5430   -1.7150 N   0  0  0  0  0  0  0  0  0  0  0  0
   41.5840   12.1090    4.7910 N   0  0  0  0  0  0  0  0  0  0  0  0
   42.8430   11.4160    0.9130 N   0  0  0  0  0  0  0  0  0  0  0  0
   42.5320   12.5900    0.3080 N   0  0  0  0  0  0  0  0  0  0  0  0
   41.3760   14.7780    0.9430 C   0  0  0  0  0  0  0  0  0  0  0  0
   39.1650   15.8940    0.9150 C   0  0  0  0  0  0  0  0  0  0  0  0
   37.8100   15.5100    0.8200 C   0  0  0  0  0  0  0  0  0  0  0  0
   36.8330   16.4490    0.4390 C   0  0  0  0  0  0  0  0  0  0  0  0
   37.2000   17.7910    0.2200 C   0  0  0  0  0  0  0  0  0  0  0  0
   38.5450   18.1820    0.2950 C   0  0  0  0  0  0  0  0  0  0  0  0
   39.5310   17.2290    0.6140 C   0  0  0  0  0  0  0  0  0  0  0  0
   35.9500   19.0090   -0.1730 S   0  0  0  0  0  0  0  0  0  0  0  0
   41.9520   13.4500    1.2370 C   0  0  0  0  0  0  0  0  0  0  0  0
   41.9780   12.8570    2.4730 C   0  0  0  0  0  0  0  0  0  0  0  0
   41.6220   13.2800    3.8810 C   0  0  0  0  0  0  0  0  0  0  0  0
   42.6580   11.1030    4.6210 C   0  0  0  0  0  0  0  0  0  0  0  0
   42.6920   10.5140    3.2000 C   0  0  0  0  0  0  0  0  0  0  0  0
   42.5190   11.5860    2.1820 C   0  0  0  0  0  0  0  0  0  0  0  0
   42.8210   12.7450   -1.0760 C   0  0  0  0  0  0  0  0  0  0  0  0
   43.9420   12.0730   -1.6210 C   0  0  0  0  0  0  0  0  0  0  0  0
   44.2830   12.2270   -2.9760 C   0  0  0  0  0  0  0  0  0  0  0  0
   43.5040   13.0630   -3.7940 C   0  0  0  0  0  0  0  0  0  0  0  0
   42.3620   13.6920   -3.2790 C   0  0  0  0  0  0  0  0  0  0  0  0
   42.0170   13.5360   -1.9280 C   0  0  0  0  0  0  0  0  0  0  0  0
   42.2100   13.0050    7.3940 C   0  0  0  0  0  0  0  0  0  0  0  0
   42.1150   14.1250    8.1800 C   0  0  0  0  0  0  0  0  0  0  0  0
   43.3090   14.3960    8.9130 C   0  0  0  0  0  0  0  0  0  0  0  0
   44.3110   13.4980    8.6580 C   0  0  0  0  0  0  0  0  0  0  0  0
   41.9830   15.6050    0.2700 O   0  0  0  0  0  0  0  0  0  0  0  0
   34.6690   18.3140   -0.3410 O   0  0  0  0  0  0  0  0  0  0  0  0
   39.8570   13.3130    6.2700 O   0  0  0  0  0  0  0  0  0  0  0  0
   40.6350   10.9540    6.8880 O   0  0  0  0  0  0  0  0  0  0  0  0
   40.9150   12.3040    6.3760 S   0  0  0  0  0  0  0  0  0  0  0  0
   43.7890   12.2730    7.5350 S   0  0  0  0  0  0  0  0  0  0  0  0
   36.0750   20.1740    0.7130 O   0  0  0  0  0  0  0  0  0  0  0  0
   39.7240   14.1100    1.8230 H   0  0  0  0  0  0  0  0  0  0  0  0
   37.5080   14.4930    1.0260 H   0  0  0  0  0  0  0  0  0  0  0  0
   35.8000   16.1500    0.3580 H   0  0  0  0  0  0  0  0  0  0  0  0
   38.8120   19.2110    0.1090 H   0  0  0  0  0  0  0  0  0  0  0  0
   40.5610   17.5520    0.6350 H   0  0  0  0  0  0  0  0  0  0  0  0
   42.3380   14.0030    4.2730 H   0  0  0  0  0  0  0  0  0  0  0  0
   40.6500   13.7740    3.9110 H   0  0  0  0  0  0  0  0  0  0  0  0
   42.5400   10.2970    5.3460 H   0  0  0  0  0  0  0  0  0  0  0  0
   43.6120   11.5730    4.8410 H   0  0  0  0  0  0  0  0  0  0  0  0
   41.8980    9.7800    3.0880 H   0  0  0  0  0  0  0  0  0  0  0  0
   43.6380   10.0030    3.0430 H   0  0  0  0  0  0  0  0  0  0  0  0
   44.5510   11.4350   -0.9970 H   0  0  0  0  0  0  0  0  0  0  0  0
   45.1500   11.7250   -3.3780 H   0  0  0  0  0  0  0  0  0  0  0  0
   43.7770   13.2450   -4.8180 H   0  0  0  0  0  0  0  0  0  0  0  0
   41.7550   14.3020   -3.9240 H   0  0  0  0  0  0  0  0  0  0  0  0
   41.1340   14.0400   -1.5750 H   0  0  0  0  0  0  0  0  0  0  0  0
   41.2330   14.7400    8.2600 H   0  0  0  0  0  0  0  0  0  0  0  0
   43.3920   15.2290    9.5960 H   0  0  0  0  0  0  0  0  0  0  0  0
   45.3120   13.4790    9.0760 H   0  0  0  0  0  0  0  0  0  0  0  0
   36.1920   18.8120   -2.3890 H   0  0  0  0  0  0  0  0  0  0  0  0
   35.8790   20.3880   -1.9260 H   0  0  0  0  0  0  0  0  0  0  0  0
  1  6  1  0  0  0  0
  1  7  1  0  0  0  0
  1 37  1  0  0  0  0
  2 13  1  0  0  0  0
  2 56  1  0  0  0  0
  2 57  1  0  0  0  0
  3 16  1  0  0  0  0
  3 17  1  0  0  0  0
  3 34  1  0  0  0  0
  4  5  1  0  0  0  0
  4 19  2  0  0  0  0
  5 14  1  0  0  0  0
  5 20  1  0  0  0  0
  6 14  1  0  0  0  0
  6 30  2  0  0  0  0
  7  8  1  0  0  0  0
  7 12  2  0  0  0  0
  8  9  2  0  0  0  0
  8 38  1  0  0  0  0
  9 10  1  0  0  0  0
  9 39  1  0  0  0  0
 10 11  2  0  0  0  0
 10 13  1  0  0  0  0
 11 12  1  0  0  0  0
 11 40  1  0  0  0  0
 12 41  1  0  0  0  0
 13 31  2  0  0  0  0
 13 36  2  0  0  0  0
 14 15  2  0  0  0  0
 15 16  1  0  0  0  0
 15 19  1  0  0  0  0
 16 42  1  0  0  0  0
 16 43  1  0  0  0  0
 17 18  1  0  0  0  0
 17 44  1  0  0  0  0
 17 45  1  0  0  0  0
 18 19  1  0  0  0  0
 18 46  1  0  0  0  0
 18 47  1  0  0  0  0
 20 21  1  0  0  0  0
 20 25  2  0  0  0  0
 21 22  2  0  0  0  0
 21 48  1  0  0  0  0
 22 23  1  0  0  0  0
 22 49  1  0  0  0  0
 23 24  2  0  0  0  0
 23 50  1  0  0  0  0
 24 25  1  0  0  0  0
 24 51  1  0  0  0  0
 25 52  1  0  0  0  0
 26 27  2  0  0  0  0
 26 34  1  0  0  0  0
 26 35  1  0  0  0  0
 27 28  1  0  0  0  0
 27 53  1  0  0  0  0
 28 29  2  0  0  0  0
 28 54  1  0  0  0  0
 29 35  1  0  0  0  0
 29 55  1  0  0  0  0
 32 34  2  0  0  0  0
 33 34  2  0  0  0  0
M  END
$$$$
