../datasets/input/TYK2/poses/tyk_lig12/ligand.pdb
 OpenBabel02211915413D

 42 44  0  0  0  0  0  0  0  0999 V2000
   -1.9610   21.5500  -27.3300 C   0  0  0  0  0  0  0  0  0  0  0  0
   -1.2940   22.4120  -28.1960 C   0  0  0  0  0  0  0  0  0  0  0  0
   -1.9550   22.9520  -29.2940 C   0  0  0  0  0  0  0  0  0  0  0  0
   -3.3000   22.6220  -29.5430 C   0  0  0  0  0  0  0  0  0  0  0  0
   -3.9690   21.7590  -28.6530 C   0  0  0  0  0  0  0  0  0  0  0  0
   -3.2920   21.2290  -27.5620 C   0  0  0  0  0  0  0  0  0  0  0  0
   -5.6400   21.3530  -28.9190 Cl  0  0  0  0  0  0  0  0  0  0  0  0
   -4.0400   23.1520  -30.7110 C   0  0  0  0  0  0  0  0  0  0  0  0
   -4.2260   22.4200  -31.6690 O   0  0  0  0  0  0  0  0  0  0  0  0
   -4.5130   24.4120  -30.6480 N   0  0  0  0  0  0  0  0  0  0  0  0
   -5.2870   25.1110  -31.5800 C   0  0  0  0  0  0  0  0  0  0  0  0
   -5.9620   24.5480  -32.6810 C   0  0  0  0  0  0  0  0  0  0  0  0
   -6.7810   25.3610  -33.4590 C   0  0  0  0  0  0  0  0  0  0  0  0
   -6.9230   26.6540  -33.1830 N   0  0  0  0  0  0  0  0  0  0  0  0
   -6.2980   27.2320  -32.1580 C   0  0  0  0  0  0  0  0  0  0  0  0
   -5.5070   26.4570  -31.3070 C   0  0  0  0  0  0  0  0  0  0  0  0
   -6.5390   28.5830  -31.8840 N   0  0  0  0  0  0  0  0  0  0  0  0
   -5.7130   29.4450  -31.2330 C   0  0  0  0  0  0  0  0  0  0  0  0
   -4.6160   29.1220  -30.8100 O   0  0  0  0  0  0  0  0  0  0  0  0
   -1.1120   24.0510  -30.3320 Cl  0  0  0  0  0  0  0  0  0  0  0  0
   -1.4440   21.1320  -26.4790 H   0  0  0  0  0  0  0  0  0  0  0  0
   -0.2590   22.6630  -28.0160 H   0  0  0  0  0  0  0  0  0  0  0  0
   -3.8110   20.5610  -26.8910 H   0  0  0  0  0  0  0  0  0  0  0  0
   -4.3170   24.9850  -29.8390 H   0  0  0  0  0  0  0  0  0  0  0  0
   -5.8400   23.4990  -32.9090 H   0  0  0  0  0  0  0  0  0  0  0  0
   -7.3120   24.9440  -34.3020 H   0  0  0  0  0  0  0  0  0  0  0  0
   -5.0640   26.9090  -30.4310 H   0  0  0  0  0  0  0  0  0  0  0  0
   -7.4040   29.0130  -32.1800 H   0  0  0  0  0  0  0  0  0  0  0  0
   -7.2840   30.9670  -31.1540 H   0  0  0  0  0  0  0  0  0  0  0  0
   -6.1760   30.8840  -31.0160 C   0  0  0  0  0  0  0  0  0  0  0  0
   -5.7760   31.3310  -29.6030 C   0  0  0  0  0  0  0  0  0  0  0  0
   -4.4020   31.9770  -29.7970 C   0  0  0  0  0  0  0  0  0  0  0  0
   -4.5850   32.7530  -31.1040 C   0  0  0  0  0  0  0  0  0  0  0  0
   -5.4200   31.8130  -31.9830 C   0  0  0  0  0  0  0  0  0  0  0  0
   -5.7580   30.4900  -28.8680 H   0  0  0  0  0  0  0  0  0  0  0  0
   -6.4960   32.1000  -29.2320 H   0  0  0  0  0  0  0  0  0  0  0  0
   -4.1040   32.6290  -28.9420 H   0  0  0  0  0  0  0  0  0  0  0  0
   -3.6250   31.1860  -29.9300 H   0  0  0  0  0  0  0  0  0  0  0  0
   -5.1600   33.6880  -30.8980 H   0  0  0  0  0  0  0  0  0  0  0  0
   -3.6130   33.0420  -31.5730 H   0  0  0  0  0  0  0  0  0  0  0  0
   -4.7460   31.2110  -32.6410 H   0  0  0  0  0  0  0  0  0  0  0  0
   -6.1120   32.3850  -32.6480 H   0  0  0  0  0  0  0  0  0  0  0  0
  1  2  2  0  0  0  0
  1  6  1  0  0  0  0
  1 21  1  0  0  0  0
  2  3  1  0  0  0  0
  2 22  1  0  0  0  0
  3  4  2  0  0  0  0
  3 20  1  0  0  0  0
  4  5  1  0  0  0  0
  4  8  1  0  0  0  0
  5  6  2  0  0  0  0
  5  7  1  0  0  0  0
  6 23  1  0  0  0  0
  8  9  2  0  0  0  0
  8 10  1  0  0  0  0
 10 11  1  0  0  0  0
 10 24  1  0  0  0  0
 11 12  2  0  0  0  0
 11 16  1  0  0  0  0
 12 13  1  0  0  0  0
 12 25  1  0  0  0  0
 13 14  2  0  0  0  0
 13 26  1  0  0  0  0
 14 15  1  0  0  0  0
 15 16  2  0  0  0  0
 15 17  1  0  0  0  0
 16 27  1  0  0  0  0
 17 18  1  0  0  0  0
 17 28  1  0  0  0  0
 18 19  2  0  0  0  0
 18 30  1  0  0  0  0
 29 30  1  0  0  0  0
 30 31  1  0  0  0  0
 30 34  1  0  0  0  0
 31 32  1  0  0  0  0
 31 35  1  0  0  0  0
 31 36  1  0  0  0  0
 32 33  1  0  0  0  0
 32 37  1  0  0  0  0
 32 38  1  0  0  0  0
 33 34  1  0  0  0  0
 33 39  1  0  0  0  0
 33 40  1  0  0  0  0
 34 41  1  0  0  0  0
 34 42  1  0  0  0  0
M  END
