../datasets/input/FXR_2/poses/FXR85/ligand.pdb
 OpenBabel02211915413D

 60 64  0  0  0  0  0  0  0  0999 V2000
   40.6050   14.6580    1.6490 N   0  0  0  0  0  0  0  0  0  0  0  0
   44.3020   11.6170    3.0770 N   0  0  0  0  0  0  0  0  0  0  0  0
   35.7200   18.6620   -0.6470 C   0  0  0  0  0  0  0  0  0  0  0  0
   36.6450   17.7790    0.1370 C   0  0  0  0  0  0  0  0  0  0  0  0
   38.0360   17.9970    0.1060 C   0  0  0  0  0  0  0  0  0  0  0  0
   38.9090   17.1660    0.8360 C   0  0  0  0  0  0  0  0  0  0  0  0
   38.4100   16.0340    1.5100 C   0  0  0  0  0  0  0  0  0  0  0  0
   39.3170   15.0580    2.2420 C   0  0  0  0  0  0  0  0  0  0  0  0
   41.5460   14.0530    2.3980 C   0  0  0  0  0  0  0  0  0  0  0  0
   42.6970   13.5070    1.5280 C   0  0  0  0  0  0  0  0  0  0  0  0
   42.5810   11.9820    1.3730 C   0  0  0  0  0  0  0  0  0  0  0  0
   42.9530   11.2370    2.6460 C   0  0  0  0  0  0  0  0  0  0  0  0
   44.5360   13.0650    3.2810 C   0  0  0  0  0  0  0  0  0  0  0  0
   44.1120   13.8740    2.0330 C   0  0  0  0  0  0  0  0  0  0  0  0
   44.1360    9.8980    5.2330 C   0  0  0  0  0  0  0  0  0  0  0  0
   43.5520   10.9550    5.9670 C   0  0  0  0  0  0  0  0  0  0  0  0
   42.6130   10.7100    6.9870 C   0  0  0  0  0  0  0  0  0  0  0  0
   42.2470    9.3930    7.2940 C   0  0  0  0  0  0  0  0  0  0  0  0
   42.8250    8.3320    6.5800 C   0  0  0  0  0  0  0  0  0  0  0  0
   43.7610    8.5560    5.5460 C   0  0  0  0  0  0  0  0  0  0  0  0
   42.3150   14.1440    0.2200 C   0  0  0  0  0  0  0  0  0  0  0  0
   43.0310   14.0890   -0.9880 C   0  0  0  0  0  0  0  0  0  0  0  0
   42.4130   14.5830   -2.1520 C   0  0  0  0  0  0  0  0  0  0  0  0
   41.0960   15.0860   -2.0930 C   0  0  0  0  0  0  0  0  0  0  0  0
   40.3890   15.1260   -0.8750 C   0  0  0  0  0  0  0  0  0  0  0  0
   41.0390   14.6930    0.2970 C   0  0  0  0  0  0  0  0  0  0  0  0
   37.0210   15.8060    1.5330 C   0  0  0  0  0  0  0  0  0  0  0  0
   36.1480   16.6830    0.8680 C   0  0  0  0  0  0  0  0  0  0  0  0
   34.4970   18.4070   -0.6770 O   0  5  0  0  0  0  0  0  0  0  0  0
   36.1650   19.5450   -1.4070 O   0  0  0  0  0  0  0  0  0  0  0  0
   41.5310   13.9510    3.6270 O   0  0  0  0  0  0  0  0  0  0  0  0
   45.4050    9.3330    2.8890 O   0  0  0  0  0  0  0  0  0  0  0  0
   46.4320   11.0740    4.4230 O   0  0  0  0  0  0  0  0  0  0  0  0
   44.2880    7.3110    4.8530 C   0  0  0  0  0  0  0  0  0  0  0  0
   43.3400   14.5370   -3.8100 Br  0  0  0  0  0  0  0  0  0  0  0  0
   45.2420   10.4060    3.8750 S   0  0  0  0  0  0  0  0  0  0  0  0
   38.4140   18.8120   -0.4930 H   0  0  0  0  0  0  0  0  0  0  0  0
   39.9740   17.3460    0.8130 H   0  0  0  0  0  0  0  0  0  0  0  0
   39.4990   15.4940    3.2260 H   0  0  0  0  0  0  0  0  0  0  0  0
   38.7590   14.1410    2.4290 H   0  0  0  0  0  0  0  0  0  0  0  0
   43.2160   11.6370    0.5560 H   0  0  0  0  0  0  0  0  0  0  0  0
   41.5590   11.7170    1.1020 H   0  0  0  0  0  0  0  0  0  0  0  0
   42.2410   11.4340    3.4480 H   0  0  0  0  0  0  0  0  0  0  0  0
   42.9120   10.1660    2.4700 H   0  0  0  0  0  0  0  0  0  0  0  0
   45.5920   13.2430    3.4850 H   0  0  0  0  0  0  0  0  0  0  0  0
   43.9920   13.4100    4.1570 H   0  0  0  0  0  0  0  0  0  0  0  0
   44.1740   14.9420    2.2460 H   0  0  0  0  0  0  0  0  0  0  0  0
   44.8360   13.6810    1.2410 H   0  0  0  0  0  0  0  0  0  0  0  0
   43.8360   11.9700    5.7500 H   0  0  0  0  0  0  0  0  0  0  0  0
   42.1770   11.5290    7.5370 H   0  0  0  0  0  0  0  0  0  0  0  0
   41.5310    9.1930    8.0810 H   0  0  0  0  0  0  0  0  0  0  0  0
   42.5380    7.3280    6.8340 H   0  0  0  0  0  0  0  0  0  0  0  0
   44.0150   13.6550   -1.0270 H   0  0  0  0  0  0  0  0  0  0  0  0
   40.6190   15.4390   -2.9880 H   0  0  0  0  0  0  0  0  0  0  0  0
   39.3640   15.4600   -0.8810 H   0  0  0  0  0  0  0  0  0  0  0  0
   36.6130   14.9520    2.0500 H   0  0  0  0  0  0  0  0  0  0  0  0
   35.0890   16.4920    0.8890 H   0  0  0  0  0  0  0  0  0  0  0  0
   44.5460    6.5570    5.5970 H   0  0  0  0  0  0  0  0  0  0  0  0
   43.5120    6.8750    4.2290 H   0  0  0  0  0  0  0  0  0  0  0  0
   45.1780    7.4630    4.2530 H   0  0  0  0  0  0  0  0  0  0  0  0
  1  8  1  0  0  0  0
  1  9  1  0  0  0  0
  1 26  1  0  0  0  0
  2 12  1  0  0  0  0
  2 13  1  0  0  0  0
  2 36  1  0  0  0  0
  3  4  1  0  0  0  0
  3 29  1  0  0  0  0
  3 30  2  0  0  0  0
  4  5  1  0  0  0  0
  4 28  2  0  0  0  0
  5  6  2  0  0  0  0
  5 37  1  0  0  0  0
  6  7  1  0  0  0  0
  6 38  1  0  0  0  0
  7  8  1  0  0  0  0
  7 27  2  0  0  0  0
  8 39  1  0  0  0  0
  8 40  1  0  0  0  0
  9 10  1  0  0  0  0
  9 31  2  0  0  0  0
 10 11  1  0  0  0  0
 10 14  1  0  0  0  0
 10 21  1  0  0  0  0
 11 12  1  0  0  0  0
 11 41  1  0  0  0  0
 11 42  1  0  0  0  0
 12 43  1  0  0  0  0
 12 44  1  0  0  0  0
 13 14  1  0  0  0  0
 13 45  1  0  0  0  0
 13 46  1  0  0  0  0
 14 47  1  0  0  0  0
 14 48  1  0  0  0  0
 15 16  1  0  0  0  0
 15 20  2  0  0  0  0
 15 36  1  0  0  0  0
 16 17  2  0  0  0  0
 16 49  1  0  0  0  0
 17 18  1  0  0  0  0
 17 50  1  0  0  0  0
 18 19  2  0  0  0  0
 18 51  1  0  0  0  0
 19 20  1  0  0  0  0
 19 52  1  0  0  0  0
 20 34  1  0  0  0  0
 21 22  1  0  0  0  0
 21 26  2  0  0  0  0
 22 23  2  0  0  0  0
 22 53  1  0  0  0  0
 23 24  1  0  0  0  0
 23 35  1  0  0  0  0
 24 25  2  0  0  0  0
 24 54  1  0  0  0  0
 25 26  1  0  0  0  0
 25 55  1  0  0  0  0
 27 28  1  0  0  0  0
 27 56  1  0  0  0  0
 28 57  1  0  0  0  0
 32 36  2  0  0  0  0
 33 36  2  0  0  0  0
 34 58  1  0  0  0  0
 34 59  1  0  0  0  0
 34 60  1  0  0  0  0
M  CHG  1  29  -1
M  END
