../datasets/input/TYK2/poses/tyk_lig7/ligand.pdb
 OpenBabel02211915413D

 39 41  0  0  1  0  0  0  0  0999 V2000
   -1.9610   21.5500  -27.3300 C   0  0  0  0  0  0  0  0  0  0  0  0
   -1.2940   22.4120  -28.1960 C   0  0  0  0  0  0  0  0  0  0  0  0
   -1.9550   22.9520  -29.2940 C   0  0  0  0  0  0  0  0  0  0  0  0
   -3.3000   22.6220  -29.5430 C   0  0  0  0  0  0  0  0  0  0  0  0
   -3.9690   21.7590  -28.6530 C   0  0  0  0  0  0  0  0  0  0  0  0
   -3.2920   21.2290  -27.5620 C   0  0  0  0  0  0  0  0  0  0  0  0
   -5.6400   21.3530  -28.9190 Cl  0  0  0  0  0  0  0  0  0  0  0  0
   -4.0400   23.1520  -30.7110 C   0  0  0  0  0  0  0  0  0  0  0  0
   -4.2260   22.4200  -31.6690 O   0  0  0  0  0  0  0  0  0  0  0  0
   -4.5130   24.4120  -30.6480 N   0  0  0  0  0  0  0  0  0  0  0  0
   -5.2870   25.1110  -31.5800 C   0  0  0  0  0  0  0  0  0  0  0  0
   -5.9620   24.5480  -32.6810 C   0  0  0  0  0  0  0  0  0  0  0  0
   -6.7810   25.3610  -33.4590 C   0  0  0  0  0  0  0  0  0  0  0  0
   -6.9230   26.6540  -33.1830 N   0  0  0  0  0  0  0  0  0  0  0  0
   -6.2980   27.2320  -32.1580 C   0  0  0  0  0  0  0  0  0  0  0  0
   -5.5070   26.4570  -31.3070 C   0  0  0  0  0  0  0  0  0  0  0  0
   -6.5390   28.5830  -31.8840 N   0  0  0  0  0  0  0  0  0  0  0  0
   -5.7130   29.4450  -31.2330 C   0  0  0  0  0  0  0  0  0  0  0  0
   -4.6160   29.1220  -30.8100 O   0  0  0  0  0  0  0  0  0  0  0  0
   -6.2320   30.8470  -31.0310 C   0  0  1  0  0  0  0  0  0  0  0  0
   -5.5790   31.7460  -29.9760 C   0  0  0  0  0  0  0  0  0  0  0  0
   -5.3640   32.0240  -31.4650 C   0  0  1  0  0  0  0  0  0  0  0  0
   -4.0190   31.7000  -32.0460 C   0  0  0  0  0  0  0  0  0  0  0  0
   -1.1120   24.0510  -30.3320 Cl  0  0  0  0  0  0  0  0  0  0  0  0
   -7.3050   30.9410  -31.1620 H   0  0  0  0  0  0  0  0  0  0  0  0
   -5.8630   32.8960  -31.8830 H   0  0  0  0  0  0  0  0  0  0  0  0
   -1.4440   21.1320  -26.4790 H   0  0  0  0  0  0  0  0  0  0  0  0
   -0.2590   22.6630  -28.0160 H   0  0  0  0  0  0  0  0  0  0  0  0
   -3.8110   20.5610  -26.8910 H   0  0  0  0  0  0  0  0  0  0  0  0
   -4.3170   24.9850  -29.8390 H   0  0  0  0  0  0  0  0  0  0  0  0
   -5.8400   23.4990  -32.9090 H   0  0  0  0  0  0  0  0  0  0  0  0
   -7.3120   24.9440  -34.3020 H   0  0  0  0  0  0  0  0  0  0  0  0
   -5.0640   26.9090  -30.4310 H   0  0  0  0  0  0  0  0  0  0  0  0
   -7.4040   29.0130  -32.1800 H   0  0  0  0  0  0  0  0  0  0  0  0
   -6.3520   32.2030  -29.3580 H   0  0  0  0  0  0  0  0  0  0  0  0
   -4.9170   31.1490  -29.3470 H   0  0  0  0  0  0  0  0  0  0  0  0
   -3.5060   32.6240  -32.3120 H   0  0  0  0  0  0  0  0  0  0  0  0
   -3.4270   31.1550  -31.3110 H   0  0  0  0  0  0  0  0  0  0  0  0
   -4.1460   31.0860  -32.9380 H   0  0  0  0  0  0  0  0  0  0  0  0
  1  2  2  0  0  0  0
  1  6  1  0  0  0  0
  1 27  1  0  0  0  0
  2  3  1  0  0  0  0
  2 28  1  0  0  0  0
  3  4  2  0  0  0  0
  3 24  1  0  0  0  0
  4  5  1  0  0  0  0
  4  8  1  0  0  0  0
  5  6  2  0  0  0  0
  5  7  1  0  0  0  0
  6 29  1  0  0  0  0
  8  9  2  0  0  0  0
  8 10  1  0  0  0  0
 10 11  1  0  0  0  0
 10 30  1  0  0  0  0
 11 12  2  0  0  0  0
 11 16  1  0  0  0  0
 12 13  1  0  0  0  0
 12 31  1  0  0  0  0
 13 14  2  0  0  0  0
 13 32  1  0  0  0  0
 14 15  1  0  0  0  0
 15 16  2  0  0  0  0
 15 17  1  0  0  0  0
 16 33  1  0  0  0  0
 17 18  1  0  0  0  0
 17 34  1  0  0  0  0
 18 19  2  0  0  0  0
 18 20  1  0  0  0  0
 20 21  1  0  0  0  0
 20 22  1  6  0  0  0
 20 25  1  0  0  0  0
 21 22  1  0  0  0  0
 21 35  1  0  0  0  0
 21 36  1  0  0  0  0
 22 23  1  0  0  0  0
 22 26  1  6  0  0  0
 23 37  1  0  0  0  0
 23 38  1  0  0  0  0
 23 39  1  0  0  0  0
M  END
