../datasets/input/THROMBIN/poses/3E/ligand.pdb
 OpenBabel03111910183D

 48 49  0  0  1  0  0  0  0  0999 V2000
   38.4520   20.9410   39.8890 C   0  0  0  0  0  0  0  0  0  0  0  0
   38.1760   22.2900   39.2020 C   0  0  0  0  0  0  0  0  0  0  0  0
   37.2030   22.8820   39.5600 O   0  0  0  0  0  0  0  0  0  0  0  0
   39.0970   20.9280   41.3020 C   0  0  0  0  0  0  0  0  0  0  0  0
   38.9050   22.8150   38.1840 N   0  0  0  0  0  0  0  0  0  0  0  0
   38.6810   24.1070   37.6650 C   0  0  2  0  0  0  0  0  0  0  0  0
   37.3210   24.2810   37.0280 C   0  0  0  0  0  0  0  0  0  0  0  0
   36.7000   23.4210   36.3870 O   0  0  0  0  0  0  0  0  0  0  0  0
   39.7630   24.2710   36.6170 C   0  0  0  0  0  0  0  0  0  0  0  0
   40.8020   23.2220   36.8020 C   0  0  0  0  0  0  0  0  0  0  0  0
   40.0240   22.0470   37.5190 C   0  0  0  0  0  0  0  0  0  0  0  0
   36.6330   25.4240   37.3370 N   0  0  0  0  0  0  0  0  0  0  0  0
   35.1740   25.6300   36.9800 C   0  0  0  0  0  0  0  0  0  0  0  0
   34.2660   25.6200   38.1890 C   0  0  0  0  0  0  0  0  0  0  0  0
   33.2840   24.6150   38.3220 C   0  0  0  0  0  0  0  0  0  0  0  0
   32.3760   24.5920   39.3260 C   0  0  0  0  0  0  0  0  0  0  0  0
   32.4010   25.5900   40.2570 C   0  0  0  0  0  0  0  0  0  0  0  0
   33.2940   26.6680   40.1060 C   0  0  0  0  0  0  0  0  0  0  0  0
   34.3030   26.6490   39.0960 C   0  0  0  0  0  0  0  0  0  0  0  0
   33.2190   27.9550   41.2680 C   0  0  0  0  0  0  0  0  0  0  0  0
   39.0840   19.5170   41.8360 C   0  0  0  0  0  0  0  0  0  0  0  0
   40.5560   21.5620   41.2800 C   0  0  0  0  0  0  0  0  0  0  0  0
   38.2260   21.6990   42.2610 C   0  0  0  0  0  0  0  0  0  0  0  0
   39.1240   20.3500   39.2640 H   0  0  0  0  0  0  0  0  0  0  0  0
   38.7730   24.9320   38.3760 H   0  0  0  0  0  0  0  0  0  0  0  0
   39.3390   24.2040   35.6130 H   0  0  0  0  0  0  0  0  0  0  0  0
   40.2090   25.2610   36.7340 H   0  0  0  0  0  0  0  0  0  0  0  0
   41.1630   22.8470   35.8420 H   0  0  0  0  0  0  0  0  0  0  0  0
   41.6790   23.5310   37.3740 H   0  0  0  0  0  0  0  0  0  0  0  0
   40.7070   21.5860   38.2370 H   0  0  0  0  0  0  0  0  0  0  0  0
   39.6290   21.4260   36.7120 H   0  0  0  0  0  0  0  0  0  0  0  0
   37.1250   26.0980   37.9050 H   0  0  0  0  0  0  0  0  0  0  0  0
   35.0770   26.6210   36.5290 H   0  0  0  0  0  0  0  0  0  0  0  0
   34.7840   24.9160   36.2500 H   0  0  0  0  0  0  0  0  0  0  0  0
   33.3600   23.7530   37.6650 H   0  0  0  0  0  0  0  0  0  0  0  0
   31.7040   23.7420   39.4140 H   0  0  0  0  0  0  0  0  0  0  0  0
   31.6230   25.7490   40.9990 H   0  0  0  0  0  0  0  0  0  0  0  0
   35.0030   27.4790   39.0560 H   0  0  0  0  0  0  0  0  0  0  0  0
   37.4800   20.4450   39.9310 H   0  0  0  0  0  0  0  0  0  0  0  0
   39.7230   18.7460   41.4000 H   0  0  0  0  0  0  0  0  0  0  0  0
   40.9880   21.6930   42.2740 H   0  0  0  0  0  0  0  0  0  0  0  0
   41.1680   20.8350   40.7420 H   0  0  0  0  0  0  0  0  0  0  0  0
   40.5800   22.5130   40.7430 H   0  0  0  0  0  0  0  0  0  0  0  0
   37.9320   21.1700   43.1690 H   0  0  0  0  0  0  0  0  0  0  0  0
   38.8070   22.5440   42.6360 H   0  0  0  0  0  0  0  0  0  0  0  0
   37.3280   22.0090   41.7230 H   0  0  0  0  0  0  0  0  0  0  0  0
   38.0560   19.1500   41.8770 H   0  0  0  0  0  0  0  0  0  0  0  0
   39.3660   19.5210   42.8910 H   0  0  0  0  0  0  0  0  0  0  0  0
  1  2  1  0  0  0  0
  1 24  1  0  0  0  0
  1 39  1  0  0  0  0
  1  4  1  0  0  0  0
  2  5  1  0  0  0  0
  2  3  2  0  0  0  0
  4 22  1  0  0  0  0
  4 21  1  0  0  0  0
  4 23  1  0  0  0  0
  5 11  1  0  0  0  0
  5  6  1  0  0  0  0
  6  9  1  0  0  0  0
  6  7  1  0  0  0  0
  6 25  1  1  0  0  0
  7  8  2  0  0  0  0
  7 12  1  0  0  0  0
  9 26  1  0  0  0  0
  9 27  1  0  0  0  0
  9 10  1  0  0  0  0
 10 28  1  0  0  0  0
 10 29  1  0  0  0  0
 10 11  1  0  0  0  0
 11 31  1  0  0  0  0
 11 30  1  0  0  0  0
 12 13  1  0  0  0  0
 12 32  1  0  0  0  0
 13 34  1  0  0  0  0
 13 33  1  0  0  0  0
 13 14  1  0  0  0  0
 14 15  2  0  0  0  0
 14 19  1  0  0  0  0
 15 35  1  0  0  0  0
 15 16  1  0  0  0  0
 16 36  1  0  0  0  0
 16 17  2  0  0  0  0
 17 18  1  0  0  0  0
 17 37  1  0  0  0  0
 18 19  2  0  0  0  0
 18 20  1  0  0  0  0
 19 38  1  0  0  0  0
 21 40  1  0  0  0  0
 21 47  1  0  0  0  0
 21 48  1  0  0  0  0
 22 42  1  0  0  0  0
 22 43  1  0  0  0  0
 22 41  1  0  0  0  0
 23 46  1  0  0  0  0
 23 45  1  0  0  0  0
 23 44  1  0  0  0  0
M  END
$$$$
