../datasets/input/FXR_1/poses/FXR93/ligand.pdb
 OpenBabel02211915413D

 53 57  0  0  0  0  0  0  0  0999 V2000
   39.4650   14.1350    1.8330 N   0  0  0  0  0  0  0  0  0  0  0  0
   41.7470   11.8650    5.3740 N   0  0  0  0  0  0  0  0  0  0  0  0
   43.1040   11.7130    1.4010 C   0  0  0  0  0  0  0  0  0  0  0  0
   42.4100   12.7620    0.8490 C   0  0  0  0  0  0  0  0  0  0  0  0
   40.7720   14.4410    1.8620 C   0  0  0  0  0  0  0  0  0  0  0  0
   38.4070   14.9190    1.2900 C   0  0  0  0  0  0  0  0  0  0  0  0
   37.2740   14.2350    0.8020 C   0  0  0  0  0  0  0  0  0  0  0  0
   36.2000   14.9340    0.2230 C   0  0  0  0  0  0  0  0  0  0  0  0
   36.2500   16.3350    0.1040 C   0  0  0  0  0  0  0  0  0  0  0  0
   37.3670   17.0330    0.5990 C   0  0  0  0  0  0  0  0  0  0  0  0
   38.4300   16.3320    1.2020 C   0  0  0  0  0  0  0  0  0  0  0  0
   41.6800   13.3350    1.9080 N   0  0  0  0  0  0  0  0  0  0  0  0
   41.9620   12.6540    3.0830 C   0  0  0  0  0  0  0  0  0  0  0  0
   41.4780   12.9990    4.4640 C   0  0  0  0  0  0  0  0  0  0  0  0
   43.0630   11.2040    5.2200 C   0  0  0  0  0  0  0  0  0  0  0  0
   43.2590   10.6370    3.8060 C   0  0  0  0  0  0  0  0  0  0  0  0
   42.8000   11.6270    2.7820 C   0  0  0  0  0  0  0  0  0  0  0  0
   42.3880   13.1610   -0.5790 C   0  0  0  0  0  0  0  0  0  0  0  0
   43.1450   12.3820   -1.4900 C   0  0  0  0  0  0  0  0  0  0  0  0
   43.1360   12.6320   -2.8720 C   0  0  0  0  0  0  0  0  0  0  0  0
   42.3830   13.6970   -3.3900 C   0  0  0  0  0  0  0  0  0  0  0  0
   41.6460   14.5030   -2.5120 C   0  0  0  0  0  0  0  0  0  0  0  0
   41.6490   14.2400   -1.1320 C   0  0  0  0  0  0  0  0  0  0  0  0
   42.2160   12.9580    7.9090 C   0  0  0  0  0  0  0  0  0  0  0  0
   41.8870   14.0980    8.5910 C   0  0  0  0  0  0  0  0  0  0  0  0
   42.9740   14.6320    9.3420 C   0  0  0  0  0  0  0  0  0  0  0  0
   44.1350   13.9220    9.1860 C   0  0  0  0  0  0  0  0  0  0  0  0
   41.2510   15.5670    1.7940 O   0  0  0  0  0  0  0  0  0  0  0  0
   39.8170   12.6500    6.8810 O   0  0  0  0  0  0  0  0  0  0  0  0
   41.1790   10.5640    7.5030 O   0  0  0  0  0  0  0  0  0  0  0  0
   41.0950   11.9290    6.9650 S   0  0  0  0  0  0  0  0  0  0  0  0
   43.9020   12.5550    8.1330 S   0  0  0  0  0  0  0  0  0  0  0  0
   39.2800   13.1500    1.9400 H   0  0  0  0  0  0  0  0  0  0  0  0
   35.4300   16.8760   -0.3470 H   0  0  0  0  0  0  0  0  0  0  0  0
   37.2250   13.1570    0.8540 H   0  0  0  0  0  0  0  0  0  0  0  0
   35.3410   14.3840   -0.1250 H   0  0  0  0  0  0  0  0  0  0  0  0
   37.4060   18.1100    0.5360 H   0  0  0  0  0  0  0  0  0  0  0  0
   39.2520   16.9070    1.5900 H   0  0  0  0  0  0  0  0  0  0  0  0
   41.9750   13.8930    4.8400 H   0  0  0  0  0  0  0  0  0  0  0  0
   40.4060   13.2050    4.4590 H   0  0  0  0  0  0  0  0  0  0  0  0
   43.1810   10.4080    5.9570 H   0  0  0  0  0  0  0  0  0  0  0  0
   43.8370   11.9390    5.4230 H   0  0  0  0  0  0  0  0  0  0  0  0
   42.6770    9.7250    3.6910 H   0  0  0  0  0  0  0  0  0  0  0  0
   44.3060   10.3830    3.6370 H   0  0  0  0  0  0  0  0  0  0  0  0
   43.7620   11.5680   -1.1510 H   0  0  0  0  0  0  0  0  0  0  0  0
   43.7260   12.0090   -3.5260 H   0  0  0  0  0  0  0  0  0  0  0  0
   42.3850   13.9080   -4.4490 H   0  0  0  0  0  0  0  0  0  0  0  0
   41.0780   15.3390   -2.8840 H   0  0  0  0  0  0  0  0  0  0  0  0
   41.0550   14.9180   -0.5520 H   0  0  0  0  0  0  0  0  0  0  0  0
   40.9040   14.5380    8.6010 H   0  0  0  0  0  0  0  0  0  0  0  0
   42.8710   15.5010    9.9750 H   0  0  0  0  0  0  0  0  0  0  0  0
   45.0980   14.1130    9.6460 H   0  0  0  0  0  0  0  0  0  0  0  0
   43.7640   11.0390    0.8770 H   0  0  0  0  0  0  0  0  0  0  0  0
  1  5  1  0  0  0  0
  1  6  1  0  0  0  0
  1 33  1  0  0  0  0
  2 14  1  0  0  0  0
  2 15  1  0  0  0  0
  2 31  1  0  0  0  0
  3  4  2  0  0  0  0
  3 17  1  0  0  0  0
  3 53  1  0  0  0  0
  4 18  1  0  0  0  0
  4 12  1  0  0  0  0
  5 12  1  0  0  0  0
  5 28  2  0  0  0  0
  6  7  1  0  0  0  0
  6 11  2  0  0  0  0
  7  8  2  0  0  0  0
  7 35  1  0  0  0  0
  8  9  1  0  0  0  0
  8 36  1  0  0  0  0
  9 10  2  0  0  0  0
  9 34  1  0  0  0  0
 10 11  1  0  0  0  0
 10 37  1  0  0  0  0
 11 38  1  0  0  0  0
 12 13  1  0  0  0  0
 13 14  1  0  0  0  0
 13 17  2  0  0  0  0
 14 39  1  0  0  0  0
 14 40  1  0  0  0  0
 15 16  1  0  0  0  0
 15 41  1  0  0  0  0
 15 42  1  0  0  0  0
 16 17  1  0  0  0  0
 16 43  1  0  0  0  0
 16 44  1  0  0  0  0
 18 19  1  0  0  0  0
 18 23  2  0  0  0  0
 19 20  2  0  0  0  0
 19 45  1  0  0  0  0
 20 21  1  0  0  0  0
 20 46  1  0  0  0  0
 21 22  2  0  0  0  0
 21 47  1  0  0  0  0
 22 23  1  0  0  0  0
 22 48  1  0  0  0  0
 23 49  1  0  0  0  0
 24 25  2  0  0  0  0
 24 31  1  0  0  0  0
 24 32  1  0  0  0  0
 25 26  1  0  0  0  0
 25 50  1  0  0  0  0
 26 27  2  0  0  0  0
 26 51  1  0  0  0  0
 27 32  1  0  0  0  0
 27 52  1  0  0  0  0
 29 31  2  0  0  0  0
 30 31  2  0  0  0  0
M  END
