../datasets/input/THROMBIN/poses/5D/ligand.pdb
 OpenBabel03111910183D

 48 49  0  0  1  0  0  0  0  0999 V2000
   38.3440   20.7520   39.8120 C   0  0  1  0  0  0  0  0  0  0  0  0
   38.0660   22.1590   39.2160 C   0  0  0  0  0  0  0  0  0  0  0  0
   37.0720   22.7390   39.6670 O   0  0  0  0  0  0  0  0  0  0  0  0
   39.4670   20.7900   40.8860 C   0  0  0  0  0  0  0  0  0  0  0  0
   38.9170   22.6750   38.3270 N   0  0  0  0  0  0  0  0  0  0  0  0
   38.5660   23.9740   37.7410 C   0  0  2  0  0  0  0  0  0  0  0  0
   37.0880   24.0560   37.1920 C   0  0  0  0  0  0  0  0  0  0  0  0
   36.6020   23.1700   36.5620 O   0  0  0  0  0  0  0  0  0  0  0  0
   39.5430   24.1230   36.5910 C   0  0  0  0  0  0  0  0  0  0  0  0
   40.6520   23.1530   36.8380 C   0  0  0  0  0  0  0  0  0  0  0  0
   40.0650   22.0860   37.6570 C   0  0  0  0  0  0  0  0  0  0  0  0
   36.4650   25.1920   37.3660 N   0  0  0  0  0  0  0  0  0  0  0  0
   35.1140   25.5730   37.0460 C   0  0  0  0  0  0  0  0  0  0  0  0
   34.2370   25.5630   38.2540 C   0  0  0  0  0  0  0  0  0  0  0  0
   33.3630   24.5110   38.3650 C   0  0  0  0  0  0  0  0  0  0  0  0
   32.4390   24.5070   39.4140 C   0  0  0  0  0  0  0  0  0  0  0  0
   32.2840   25.5620   40.3400 C   0  0  0  0  0  0  0  0  0  0  0  0
   33.2100   26.5800   40.1760 C   0  0  0  0  0  0  0  0  0  0  0  0
   34.1770   26.5680   39.1590 C   0  0  0  0  0  0  0  0  0  0  0  0
   33.1310   27.8850   41.3130 C   0  0  0  0  0  0  0  0  0  0  0  0
   40.0590   19.4490   41.1720 C   0  0  0  0  0  0  0  0  0  0  0  0
   38.9530   21.2690   42.2780 C   0  0  0  0  0  0  0  0  0  0  0  0
   37.0620   20.0200   40.2930 N   0  0  0  0  0  0  0  0  0  0  0  0
   40.2560   21.4930   40.6150 H   0  0  0  0  0  0  0  0  0  0  0  0
   38.7050   24.7940   38.4500 H   0  0  0  0  0  0  0  0  0  0  0  0
   39.0930   24.0310   35.6010 H   0  0  0  0  0  0  0  0  0  0  0  0
   40.0400   25.0910   36.6880 H   0  0  0  0  0  0  0  0  0  0  0  0
   41.0840   22.6760   35.9560 H   0  0  0  0  0  0  0  0  0  0  0  0
   41.4720   23.6070   37.3980 H   0  0  0  0  0  0  0  0  0  0  0  0
   40.8050   21.7860   38.4030 H   0  0  0  0  0  0  0  0  0  0  0  0
   39.6600   21.2100   37.1440 H   0  0  0  0  0  0  0  0  0  0  0  0
   36.9410   25.9360   37.8540 H   0  0  0  0  0  0  0  0  0  0  0  0
   35.0620   26.5820   36.6280 H   0  0  0  0  0  0  0  0  0  0  0  0
   34.7300   24.8610   36.3110 H   0  0  0  0  0  0  0  0  0  0  0  0
   33.2710   23.7710   37.5740 H   0  0  0  0  0  0  0  0  0  0  0  0
   31.7390   23.6810   39.5090 H   0  0  0  0  0  0  0  0  0  0  0  0
   31.6000   25.5610   41.1850 H   0  0  0  0  0  0  0  0  0  0  0  0
   34.8510   27.4210   39.1410 H   0  0  0  0  0  0  0  0  0  0  0  0
   40.8050   19.4500   41.9700 H   0  0  0  0  0  0  0  0  0  0  0  0
   39.3740   18.7110   41.5950 H   0  0  0  0  0  0  0  0  0  0  0  0
   40.6330   19.0960   40.3130 H   0  0  0  0  0  0  0  0  0  0  0  0
   39.7330   21.5820   42.9750 H   0  0  0  0  0  0  0  0  0  0  0  0
   38.2700   22.1100   42.1380 H   0  0  0  0  0  0  0  0  0  0  0  0
   38.3030   20.5580   42.7930 H   0  0  0  0  0  0  0  0  0  0  0  0
   37.2670   19.1110   40.7390 H   0  0  0  0  0  0  0  0  0  0  0  0
   36.4890   20.6790   40.8460 H   0  0  0  0  0  0  0  0  0  0  0  0
   38.7310   20.1550   38.9850 H   0  0  0  0  0  0  0  0  0  0  0  0
   36.4230   19.7820   39.5170 H   0  0  0  0  0  0  0  0  0  0  0  0
  1 47  1  6  0  0  0
  1  2  1  0  0  0  0
  1 23  1  0  0  0  0
  1  4  1  0  0  0  0
  2  5  1  0  0  0  0
  2  3  2  0  0  0  0
  4 24  1  0  0  0  0
  4 21  1  0  0  0  0
  4 22  1  0  0  0  0
  5 11  1  0  0  0  0
  5  6  1  0  0  0  0
  6  9  1  0  0  0  0
  6  7  1  0  0  0  0
  6 25  1  1  0  0  0
  7  8  2  0  0  0  0
  7 12  1  0  0  0  0
  9 26  1  0  0  0  0
  9 27  1  0  0  0  0
  9 10  1  0  0  0  0
 10 28  1  0  0  0  0
 10 29  1  0  0  0  0
 10 11  1  0  0  0  0
 11 31  1  0  0  0  0
 11 30  1  0  0  0  0
 12 13  1  0  0  0  0
 12 32  1  0  0  0  0
 13 34  1  0  0  0  0
 13 33  1  0  0  0  0
 13 14  1  0  0  0  0
 14 15  2  0  0  0  0
 14 19  1  0  0  0  0
 15 35  1  0  0  0  0
 15 16  1  0  0  0  0
 16 36  1  0  0  0  0
 16 17  2  0  0  0  0
 17 18  1  0  0  0  0
 17 37  1  0  0  0  0
 18 19  2  0  0  0  0
 18 20  1  0  0  0  0
 19 38  1  0  0  0  0
 21 41  1  0  0  0  0
 21 40  1  0  0  0  0
 21 39  1  0  0  0  0
 22 43  1  0  0  0  0
 22 44  1  0  0  0  0
 22 42  1  0  0  0  0
 23 48  1  0  0  0  0
 23 45  1  0  0  0  0
 23 46  1  0  0  0  0
M  END
$$$$
