../datasets/input/FXR_2/poses/FXR78/ligand.pdb
 OpenBabel03111910173D

 57 61  0  0  0  0  0  0  0  0999 V2000
   40.7450   14.6280    1.5280 N   0  0  0  0  0  0  0  0  0  0  0  0
   44.4050   11.5790    2.9650 N   0  0  0  0  0  0  0  0  0  0  0  0
   35.7920   18.5990   -0.6530 C   0  0  0  0  0  0  0  0  0  0  0  0
   36.7490   17.7420    0.1220 C   0  0  0  0  0  0  0  0  0  0  0  0
   38.1320   17.9940    0.0870 C   0  0  0  0  0  0  0  0  0  0  0  0
   39.0310   17.1770    0.8060 C   0  0  0  0  0  0  0  0  0  0  0  0
   38.5620   16.0270    1.4720 C   0  0  0  0  0  0  0  0  0  0  0  0
   39.5060   15.0750    2.1890 C   0  0  0  0  0  0  0  0  0  0  0  0
   41.7070   14.0020    2.2340 C   0  0  0  0  0  0  0  0  0  0  0  0
   42.7680   13.3650    1.3060 C   0  0  0  0  0  0  0  0  0  0  0  0
   42.6080   11.8390    1.2790 C   0  0  0  0  0  0  0  0  0  0  0  0
   43.0390   11.1880    2.5930 C   0  0  0  0  0  0  0  0  0  0  0  0
   44.7240   13.0300    2.9310 C   0  0  0  0  0  0  0  0  0  0  0  0
   44.2360   13.7040    1.6370 C   0  0  0  0  0  0  0  0  0  0  0  0
   44.1730   10.0780    5.3320 C   0  0  0  0  0  0  0  0  0  0  0  0
   43.7220   11.1290    6.1800 C   0  0  0  0  0  0  0  0  0  0  0  0
   42.7750   10.8760    7.1950 C   0  0  0  0  0  0  0  0  0  0  0  0
   42.2680    9.5830    7.4040 C   0  0  0  0  0  0  0  0  0  0  0  0
   42.7400    8.5340    6.6040 C   0  0  0  0  0  0  0  0  0  0  0  0
   43.6840    8.7570    5.5810 C   0  0  0  0  0  0  0  0  0  0  0  0
   42.3110   13.9570    0.0020 C   0  0  0  0  0  0  0  0  0  0  0  0
   42.9510   13.8480   -1.2430 C   0  0  0  0  0  0  0  0  0  0  0  0
   42.3280   14.4150   -2.3680 C   0  0  0  0  0  0  0  0  0  0  0  0
   41.0690   15.0350   -2.2350 C   0  0  0  0  0  0  0  0  0  0  0  0
   40.4220   15.1100   -0.9850 C   0  0  0  0  0  0  0  0  0  0  0  0
   41.0910   14.6100    0.1500 C   0  0  0  0  0  0  0  0  0  0  0  0
   37.1780   15.7650    1.5000 C   0  0  0  0  0  0  0  0  0  0  0  0
   36.2790   16.6290    0.8520 C   0  0  0  0  0  0  0  0  0  0  0  0
   34.5790   18.3200   -0.6700 O   0  5  0  0  0  0  0  0  0  0  0  0
   36.2080   19.4970   -1.4180 O   0  0  0  0  0  0  0  0  0  0  0  0
   41.7490   13.9180    3.4650 O   0  0  0  0  0  0  0  0  0  0  0  0
   45.5030    9.2850    3.0870 O   0  0  0  0  0  0  0  0  0  0  0  0
   46.4960   11.1710    4.4390 O   0  0  0  0  0  0  0  0  0  0  0  0
   44.1950    7.3330    4.7370 Cl  0  0  0  0  0  0  0  0  0  0  0  0
   43.1830   14.3270   -4.0610 Br  0  0  0  0  0  0  0  0  0  0  0  0
   45.3080   10.4600    3.9420 S   0  0  0  0  0  0  0  0  0  0  0  0
   44.3400   12.7350    6.0980 Cl  0  0  0  0  0  0  0  0  0  0  0  0
   38.4900   18.8210   -0.5060 H   0  0  0  0  0  0  0  0  0  0  0  0
   40.0900   17.3780    0.7770 H   0  0  0  0  0  0  0  0  0  0  0  0
   39.7640   15.5570    3.1340 H   0  0  0  0  0  0  0  0  0  0  0  0
   38.9540   14.1750    2.4620 H   0  0  0  0  0  0  0  0  0  0  0  0
   43.1840   11.4160    0.4540 H   0  0  0  0  0  0  0  0  0  0  0  0
   41.5630   11.5850    1.0960 H   0  0  0  0  0  0  0  0  0  0  0  0
   42.3580   11.4480    3.4040 H   0  0  0  0  0  0  0  0  0  0  0  0
   42.9830   10.1080    2.5020 H   0  0  0  0  0  0  0  0  0  0  0  0
   45.7990   13.1760    3.0470 H   0  0  0  0  0  0  0  0  0  0  0  0
   44.2460   13.5440    3.7560 H   0  0  0  0  0  0  0  0  0  0  0  0
   44.3640   14.7860    1.7140 H   0  0  0  0  0  0  0  0  0  0  0  0
   44.8770   13.3780    0.8180 H   0  0  0  0  0  0  0  0  0  0  0  0
   42.4460   11.6860    7.8340 H   0  0  0  0  0  0  0  0  0  0  0  0
   41.5450    9.3920    8.1910 H   0  0  0  0  0  0  0  0  0  0  0  0
   42.3880    7.5350    6.7850 H   0  0  0  0  0  0  0  0  0  0  0  0
   43.8960   13.3450   -1.3370 H   0  0  0  0  0  0  0  0  0  0  0  0
   40.5900   15.4640   -3.0940 H   0  0  0  0  0  0  0  0  0  0  0  0
   39.4350   15.5380   -0.9460 H   0  0  0  0  0  0  0  0  0  0  0  0
   36.7940   14.8940    2.0060 H   0  0  0  0  0  0  0  0  0  0  0  0
   35.2230   16.4180    0.8820 H   0  0  0  0  0  0  0  0  0  0  0  0
  1  8  1  0  0  0  0
  1  9  1  0  0  0  0
  1 26  1  0  0  0  0
  2 12  1  0  0  0  0
  2 13  1  0  0  0  0
  2 36  1  0  0  0  0
  3  4  1  0  0  0  0
  3 29  1  0  0  0  0
  3 30  2  0  0  0  0
  4  5  1  0  0  0  0
  4 28  2  0  0  0  0
  5  6  2  0  0  0  0
  5 38  1  0  0  0  0
  6  7  1  0  0  0  0
  6 39  1  0  0  0  0
  7  8  1  0  0  0  0
  7 27  2  0  0  0  0
  8 40  1  0  0  0  0
  8 41  1  0  0  0  0
  9 10  1  0  0  0  0
  9 31  2  0  0  0  0
 10 11  1  0  0  0  0
 10 14  1  0  0  0  0
 10 21  1  0  0  0  0
 11 12  1  0  0  0  0
 11 42  1  0  0  0  0
 11 43  1  0  0  0  0
 12 44  1  0  0  0  0
 12 45  1  0  0  0  0
 13 14  1  0  0  0  0
 13 46  1  0  0  0  0
 13 47  1  0  0  0  0
 14 48  1  0  0  0  0
 14 49  1  0  0  0  0
 15 16  1  0  0  0  0
 15 20  2  0  0  0  0
 15 36  1  0  0  0  0
 16 17  2  0  0  0  0
 16 37  1  0  0  0  0
 17 18  1  0  0  0  0
 17 50  1  0  0  0  0
 18 19  2  0  0  0  0
 18 51  1  0  0  0  0
 19 20  1  0  0  0  0
 19 52  1  0  0  0  0
 20 34  1  0  0  0  0
 21 22  1  0  0  0  0
 21 26  2  0  0  0  0
 22 23  2  0  0  0  0
 22 53  1  0  0  0  0
 23 24  1  0  0  0  0
 23 35  1  0  0  0  0
 24 25  2  0  0  0  0
 24 54  1  0  0  0  0
 25 26  1  0  0  0  0
 25 55  1  0  0  0  0
 27 28  1  0  0  0  0
 27 56  1  0  0  0  0
 28 57  1  0  0  0  0
 32 36  2  0  0  0  0
 33 36  2  0  0  0  0
M  CHG  1  29  -1
M  END
$$$$
