../datasets/input/FXR_2/poses/FXR41/ligand.pdb
 OpenBabel02211915413D

 61 65  0  0  0  0  0  0  0  0999 V2000
   40.7810   14.5120    1.6350 N   0  0  0  0  0  0  0  0  0  0  0  0
   44.5040   11.5430    3.0760 N   0  0  0  0  0  0  0  0  0  0  0  0
   35.9210   18.7300   -0.3290 C   0  0  0  0  0  0  0  0  0  0  0  0
   36.8280   17.7180    0.2520 C   0  0  0  0  0  0  0  0  0  0  0  0
   38.2190   17.8780    0.1320 C   0  0  0  0  0  0  0  0  0  0  0  0
   39.0940   17.0150    0.8180 C   0  0  0  0  0  0  0  0  0  0  0  0
   38.5890   15.8870    1.4980 C   0  0  0  0  0  0  0  0  0  0  0  0
   39.4890   14.9000    2.2250 C   0  0  0  0  0  0  0  0  0  0  0  0
   41.7390   13.9370    2.3850 C   0  0  0  0  0  0  0  0  0  0  0  0
   42.9010   13.4210    1.5060 C   0  0  0  0  0  0  0  0  0  0  0  0
   42.8140   11.8980    1.3320 C   0  0  0  0  0  0  0  0  0  0  0  0
   43.1710   11.1560    2.6110 C   0  0  0  0  0  0  0  0  0  0  0  0
   44.7360   12.9950    3.2650 C   0  0  0  0  0  0  0  0  0  0  0  0
   44.3090   13.8010    2.0140 C   0  0  0  0  0  0  0  0  0  0  0  0
   44.1750    9.9450    5.3020 C   0  0  0  0  0  0  0  0  0  0  0  0
   43.6340   11.0300    6.0270 C   0  0  0  0  0  0  0  0  0  0  0  0
   42.6550   10.8250    7.0180 C   0  0  0  0  0  0  0  0  0  0  0  0
   42.2010    9.5260    7.2970 C   0  0  0  0  0  0  0  0  0  0  0  0
   42.7370    8.4410    6.5830 C   0  0  0  0  0  0  0  0  0  0  0  0
   43.7090    8.6300    5.5820 C   0  0  0  0  0  0  0  0  0  0  0  0
   42.5030   14.0590    0.2030 C   0  0  0  0  0  0  0  0  0  0  0  0
   43.2170   14.0400   -1.0080 C   0  0  0  0  0  0  0  0  0  0  0  0
   42.5760   14.5170   -2.1650 C   0  0  0  0  0  0  0  0  0  0  0  0
   41.2400   14.9620   -2.1040 C   0  0  0  0  0  0  0  0  0  0  0  0
   40.5340   14.9660   -0.8840 C   0  0  0  0  0  0  0  0  0  0  0  0
   41.2080   14.5590    0.2850 C   0  0  0  0  0  0  0  0  0  0  0  0
   37.1970   15.6790    1.5450 C   0  0  0  0  0  0  0  0  0  0  0  0
   36.3230   16.6040    0.9530 C   0  0  0  0  0  0  0  0  0  0  0  0
   34.8840   18.9860    0.4750 O   0  0  0  0  0  0  0  0  0  0  0  0
   36.0940   19.2670   -1.4270 O   0  0  0  0  0  0  0  0  0  0  0  0
   41.7290   13.8410    3.6150 O   0  0  0  0  0  0  0  0  0  0  0  0
   45.5740    9.2210    3.0910 O   0  0  0  0  0  0  0  0  0  0  0  0
   46.5280   11.0470    4.5760 O   0  0  0  0  0  0  0  0  0  0  0  0
   44.2590    7.2060    4.7760 Cl  0  0  0  0  0  0  0  0  0  0  0  0
   43.4920   14.5340   -3.8290 Br  0  0  0  0  0  0  0  0  0  0  0  0
   45.3660   10.3570    3.9930 S   0  0  0  0  0  0  0  0  0  0  0  0
   33.9640   20.0030    0.1370 C   0  0  0  0  0  0  0  0  0  0  0  0
   38.6120   18.7000   -0.4460 H   0  0  0  0  0  0  0  0  0  0  0  0
   40.1630   17.1820    0.7760 H   0  0  0  0  0  0  0  0  0  0  0  0
   39.6660   15.3300    3.2120 H   0  0  0  0  0  0  0  0  0  0  0  0
   38.9330   13.9820    2.4080 H   0  0  0  0  0  0  0  0  0  0  0  0
   43.4740   11.5690    0.5290 H   0  0  0  0  0  0  0  0  0  0  0  0
   41.8040   11.6150    1.0330 H   0  0  0  0  0  0  0  0  0  0  0  0
   42.4370   11.3390    3.3970 H   0  0  0  0  0  0  0  0  0  0  0  0
   43.1480   10.0880    2.4300 H   0  0  0  0  0  0  0  0  0  0  0  0
   45.7940   13.1750    3.4610 H   0  0  0  0  0  0  0  0  0  0  0  0
   44.1980   13.3470    4.1430 H   0  0  0  0  0  0  0  0  0  0  0  0
   44.3650   14.8710    2.2260 H   0  0  0  0  0  0  0  0  0  0  0  0
   45.0360   13.6130    1.2250 H   0  0  0  0  0  0  0  0  0  0  0  0
   43.9900   12.0280    5.8300 H   0  0  0  0  0  0  0  0  0  0  0  0
   42.2530   11.6590    7.5710 H   0  0  0  0  0  0  0  0  0  0  0  0
   41.4520    9.3590    8.0610 H   0  0  0  0  0  0  0  0  0  0  0  0
   42.3930    7.4450    6.8050 H   0  0  0  0  0  0  0  0  0  0  0  0
   44.2190   13.6460   -1.0520 H   0  0  0  0  0  0  0  0  0  0  0  0
   40.7520   15.2990   -2.9970 H   0  0  0  0  0  0  0  0  0  0  0  0
   39.4980   15.2550   -0.8800 H   0  0  0  0  0  0  0  0  0  0  0  0
   36.7890   14.8160    2.0490 H   0  0  0  0  0  0  0  0  0  0  0  0
   35.2630   16.4350    1.0310 H   0  0  0  0  0  0  0  0  0  0  0  0
   33.1730   20.0710    0.8820 H   0  0  0  0  0  0  0  0  0  0  0  0
   34.4580   20.9720    0.0720 H   0  0  0  0  0  0  0  0  0  0  0  0
   33.5020   19.7700   -0.8180 H   0  0  0  0  0  0  0  0  0  0  0  0
  1  8  1  0  0  0  0
  1  9  1  0  0  0  0
  1 26  1  0  0  0  0
  2 12  1  0  0  0  0
  2 13  1  0  0  0  0
  2 36  1  0  0  0  0
  3  4  1  0  0  0  0
  3 29  1  0  0  0  0
  3 30  2  0  0  0  0
  4  5  1  0  0  0  0
  4 28  2  0  0  0  0
  5  6  2  0  0  0  0
  5 38  1  0  0  0  0
  6  7  1  0  0  0  0
  6 39  1  0  0  0  0
  7  8  1  0  0  0  0
  7 27  2  0  0  0  0
  8 40  1  0  0  0  0
  8 41  1  0  0  0  0
  9 10  1  0  0  0  0
  9 31  2  0  0  0  0
 10 11  1  0  0  0  0
 10 14  1  0  0  0  0
 10 21  1  0  0  0  0
 11 12  1  0  0  0  0
 11 42  1  0  0  0  0
 11 43  1  0  0  0  0
 12 44  1  0  0  0  0
 12 45  1  0  0  0  0
 13 14  1  0  0  0  0
 13 46  1  0  0  0  0
 13 47  1  0  0  0  0
 14 48  1  0  0  0  0
 14 49  1  0  0  0  0
 15 16  1  0  0  0  0
 15 20  2  0  0  0  0
 15 36  1  0  0  0  0
 16 17  2  0  0  0  0
 16 50  1  0  0  0  0
 17 18  1  0  0  0  0
 17 51  1  0  0  0  0
 18 19  2  0  0  0  0
 18 52  1  0  0  0  0
 19 20  1  0  0  0  0
 19 53  1  0  0  0  0
 20 34  1  0  0  0  0
 21 22  1  0  0  0  0
 21 26  2  0  0  0  0
 22 23  2  0  0  0  0
 22 54  1  0  0  0  0
 23 24  1  0  0  0  0
 23 35  1  0  0  0  0
 24 25  2  0  0  0  0
 24 55  1  0  0  0  0
 25 26  1  0  0  0  0
 25 56  1  0  0  0  0
 27 28  1  0  0  0  0
 27 57  1  0  0  0  0
 28 58  1  0  0  0  0
 29 37  1  0  0  0  0
 32 36  2  0  0  0  0
 33 36  2  0  0  0  0
 37 59  1  0  0  0  0
 37 60  1  0  0  0  0
 37 61  1  0  0  0  0
M  END
