../datasets/input/FXR_2/poses/FXR38/ligand.pdb
 OpenBabel02211915413D

 58 62  0  0  0  0  0  0  0  0999 V2000
   40.5280   14.5110    1.4640 N   0  0  0  0  0  0  0  0  0  0  0  0
   44.4470   11.7390    2.8500 N   0  0  0  0  0  0  0  0  0  0  0  0
   35.6620   18.9040   -0.1020 C   0  0  0  0  0  0  0  0  0  0  0  0
   36.5490   17.8100    0.3290 C   0  0  0  0  0  0  0  0  0  0  0  0
   37.9330   17.9310    0.1230 C   0  0  0  0  0  0  0  0  0  0  0  0
   38.8200   17.0160    0.7250 C   0  0  0  0  0  0  0  0  0  0  0  0
   38.3160   15.8760    1.3890 C   0  0  0  0  0  0  0  0  0  0  0  0
   39.2180   14.8440    2.0510 C   0  0  0  0  0  0  0  0  0  0  0  0
   41.5060   13.9610    2.2070 C   0  0  0  0  0  0  0  0  0  0  0  0
   42.7290   13.5860    1.3400 C   0  0  0  0  0  0  0  0  0  0  0  0
   42.7790   12.0750    1.0680 C   0  0  0  0  0  0  0  0  0  0  0  0
   43.1760   11.2630    2.2940 C   0  0  0  0  0  0  0  0  0  0  0  0
   44.5270   13.1890    3.1400 C   0  0  0  0  0  0  0  0  0  0  0  0
   44.0840   14.0400    1.9250 C   0  0  0  0  0  0  0  0  0  0  0  0
   42.3180   14.2710    0.0630 C   0  0  0  0  0  0  0  0  0  0  0  0
   43.0680   14.4000   -1.1190 C   0  0  0  0  0  0  0  0  0  0  0  0
   42.4220   14.8990   -2.2650 C   0  0  0  0  0  0  0  0  0  0  0  0
   41.0470   15.2140   -2.2250 C   0  0  0  0  0  0  0  0  0  0  0  0
   40.3070   15.0770   -1.0330 C   0  0  0  0  0  0  0  0  0  0  0  0
   40.9830   14.6580    0.1300 C   0  0  0  0  0  0  0  0  0  0  0  0
   36.9230   15.7040    1.4980 C   0  0  0  0  0  0  0  0  0  0  0  0
   36.0460   16.6780    0.9960 C   0  0  0  0  0  0  0  0  0  0  0  0
   34.9270   19.3630    0.9140 O   0  0  0  0  0  0  0  0  0  0  0  0
   35.6380   19.3640   -1.2470 O   0  0  0  0  0  0  0  0  0  0  0  0
   41.4810   13.8150    3.4320 O   0  0  0  0  0  0  0  0  0  0  0  0
   45.5070    9.3910    3.0740 O   0  0  0  0  0  0  0  0  0  0  0  0
   46.4280   11.3290    4.4510 O   0  0  0  0  0  0  0  0  0  0  0  0
   43.4010   15.1410   -3.8760 Br  0  0  0  0  0  0  0  0  0  0  0  0
   45.2910   10.6140    3.8560 S   0  0  0  0  0  0  0  0  0  0  0  0
   44.1190   10.2270    5.1490 C   0  0  0  0  0  0  0  0  0  0  0  0
   43.6820    8.5780    5.5160 S   0  0  0  0  0  0  0  0  0  0  0  0
   42.5640    9.1020    6.7500 C   0  0  0  0  0  0  0  0  0  0  0  0
   42.5100   10.4700    6.8250 C   0  0  0  0  0  0  0  0  0  0  0  0
   43.3970   11.1110    5.9060 C   0  0  0  0  0  0  0  0  0  0  0  0
   34.1530   20.5380    0.7590 C   0  0  0  0  0  0  0  0  0  0  0  0
   38.3170   18.7660   -0.4410 H   0  0  0  0  0  0  0  0  0  0  0  0
   39.8850   17.1690    0.6390 H   0  0  0  0  0  0  0  0  0  0  0  0
   39.3750   15.2070    3.0680 H   0  0  0  0  0  0  0  0  0  0  0  0
   38.6630   13.9150    2.1680 H   0  0  0  0  0  0  0  0  0  0  0  0
   43.4730   11.8620    0.2570 H   0  0  0  0  0  0  0  0  0  0  0  0
   41.8030   11.7340    0.7270 H   0  0  0  0  0  0  0  0  0  0  0  0
   42.4030   11.2990    3.0640 H   0  0  0  0  0  0  0  0  0  0  0  0
   43.2810   10.2200    2.0110 H   0  0  0  0  0  0  0  0  0  0  0  0
   45.5530   13.4500    3.4040 H   0  0  0  0  0  0  0  0  0  0  0  0
   43.9240   13.4180    4.0170 H   0  0  0  0  0  0  0  0  0  0  0  0
   44.0420   15.0930    2.2070 H   0  0  0  0  0  0  0  0  0  0  0  0
   44.8510   13.9640    1.1550 H   0  0  0  0  0  0  0  0  0  0  0  0
   44.1060   14.1120   -1.1530 H   0  0  0  0  0  0  0  0  0  0  0  0
   40.5560   15.5750   -3.1100 H   0  0  0  0  0  0  0  0  0  0  0  0
   39.2510   15.2890   -1.0340 H   0  0  0  0  0  0  0  0  0  0  0  0
   36.5200   14.8330    1.9960 H   0  0  0  0  0  0  0  0  0  0  0  0
   34.9850   16.5400    1.1210 H   0  0  0  0  0  0  0  0  0  0  0  0
   42.0310    8.3720    7.3430 H   0  0  0  0  0  0  0  0  0  0  0  0
   41.8850   11.0290    7.5070 H   0  0  0  0  0  0  0  0  0  0  0  0
   43.4880   12.1810    5.8350 H   0  0  0  0  0  0  0  0  0  0  0  0
   33.2970   20.3530    0.1130 H   0  0  0  0  0  0  0  0  0  0  0  0
   33.7830   20.8810    1.7230 H   0  0  0  0  0  0  0  0  0  0  0  0
   34.7500   21.3440    0.3350 H   0  0  0  0  0  0  0  0  0  0  0  0
  1  8  1  0  0  0  0
  1  9  1  0  0  0  0
  1 20  1  0  0  0  0
  2 12  1  0  0  0  0
  2 13  1  0  0  0  0
  2 29  1  0  0  0  0
  3  4  1  0  0  0  0
  3 23  1  0  0  0  0
  3 24  2  0  0  0  0
  4  5  1  0  0  0  0
  4 22  2  0  0  0  0
  5  6  2  0  0  0  0
  5 36  1  0  0  0  0
  6  7  1  0  0  0  0
  6 37  1  0  0  0  0
  7  8  1  0  0  0  0
  7 21  2  0  0  0  0
  8 38  1  0  0  0  0
  8 39  1  0  0  0  0
  9 10  1  0  0  0  0
  9 25  2  0  0  0  0
 10 11  1  0  0  0  0
 10 14  1  0  0  0  0
 10 15  1  0  0  0  0
 11 12  1  0  0  0  0
 11 40  1  0  0  0  0
 11 41  1  0  0  0  0
 12 42  1  0  0  0  0
 12 43  1  0  0  0  0
 13 14  1  0  0  0  0
 13 44  1  0  0  0  0
 13 45  1  0  0  0  0
 14 46  1  0  0  0  0
 14 47  1  0  0  0  0
 15 16  1  0  0  0  0
 15 20  2  0  0  0  0
 16 17  2  0  0  0  0
 16 48  1  0  0  0  0
 17 18  1  0  0  0  0
 17 28  1  0  0  0  0
 18 19  2  0  0  0  0
 18 49  1  0  0  0  0
 19 20  1  0  0  0  0
 19 50  1  0  0  0  0
 21 22  1  0  0  0  0
 21 51  1  0  0  0  0
 22 52  1  0  0  0  0
 23 35  1  0  0  0  0
 26 29  2  0  0  0  0
 27 29  2  0  0  0  0
 29 30  1  0  0  0  0
 30 31  1  0  0  0  0
 30 34  2  0  0  0  0
 31 32  1  0  0  0  0
 32 33  2  0  0  0  0
 32 53  1  0  0  0  0
 33 34  1  0  0  0  0
 33 54  1  0  0  0  0
 34 55  1  0  0  0  0
 35 56  1  0  0  0  0
 35 57  1  0  0  0  0
 35 58  1  0  0  0  0
M  END
