../datasets/input/THROMBIN/poses/5A/ligand.pdb
 OpenBabel03111910183D

 39 40  0  0  1  0  0  0  0  0999 V2000
   38.6440   21.0090   39.6370 C   0  0  0  0  0  0  0  0  0  0  0  0
   38.9900   22.9260   38.0370 N   0  0  0  0  0  0  0  0  0  0  0  0
   37.3190   22.9840   39.4660 O   0  0  0  0  0  0  0  0  0  0  0  0
   38.2740   22.3640   39.0330 C   0  0  0  0  0  0  0  0  0  0  0  0
   36.6460   25.6360   37.3310 N   0  0  0  0  0  0  0  0  0  0  0  0
   36.4100   23.5550   36.5080 O   0  0  0  0  0  0  0  0  0  0  0  0
   38.5670   24.2270   37.4960 C   0  0  2  0  0  0  0  0  0  0  0  0
   37.6050   20.5230   40.5740 N   0  0  0  0  0  0  0  0  0  0  0  0
   37.0670   24.3750   37.0970 C   0  0  0  0  0  0  0  0  0  0  0  0
   39.3950   24.3060   36.2340 C   0  0  0  0  0  0  0  0  0  0  0  0
   40.6590   23.4970   36.3700 C   0  0  0  0  0  0  0  0  0  0  0  0
   40.1890   22.3890   37.2960 C   0  0  0  0  0  0  0  0  0  0  0  0
   35.3070   26.0120   37.0940 C   0  0  0  0  0  0  0  0  0  0  0  0
   34.3670   25.7850   38.2230 C   0  0  0  0  0  0  0  0  0  0  0  0
   33.3920   24.7900   38.1770 C   0  0  0  0  0  0  0  0  0  0  0  0
   32.3920   24.6460   39.1440 C   0  0  0  0  0  0  0  0  0  0  0  0
   32.2860   25.6160   40.1500 C   0  0  0  0  0  0  0  0  0  0  0  0
   33.1990   26.6430   40.1970 C   0  0  0  0  0  0  0  0  0  0  0  0
   34.2190   26.7270   39.2810 C   0  0  0  0  0  0  0  0  0  0  0  0
   33.0130   27.8060   41.4130 C   0  0  0  0  0  0  0  0  0  0  0  0
   38.9410   25.0010   38.1720 H   0  0  0  0  0  0  0  0  0  0  0  0
   38.7070   24.1200   35.4060 H   0  0  0  0  0  0  0  0  0  0  0  0
   39.8300   25.3060   36.2730 H   0  0  0  0  0  0  0  0  0  0  0  0
   41.0330   23.2020   35.3870 H   0  0  0  0  0  0  0  0  0  0  0  0
   41.4560   24.0750   36.8430 H   0  0  0  0  0  0  0  0  0  0  0  0
   40.9450   22.1480   38.0480 H   0  0  0  0  0  0  0  0  0  0  0  0
   39.8360   21.5540   36.6850 H   0  0  0  0  0  0  0  0  0  0  0  0
   37.1430   26.2510   37.9570 H   0  0  0  0  0  0  0  0  0  0  0  0
   34.8560   25.5120   36.2330 H   0  0  0  0  0  0  0  0  0  0  0  0
   39.6070   21.1250   40.1340 H   0  0  0  0  0  0  0  0  0  0  0  0
   35.2430   27.0670   36.8140 H   0  0  0  0  0  0  0  0  0  0  0  0
   33.3740   24.0890   37.3470 H   0  0  0  0  0  0  0  0  0  0  0  0
   31.7190   23.7930   39.1800 H   0  0  0  0  0  0  0  0  0  0  0  0
   31.4790   25.5570   40.8770 H   0  0  0  0  0  0  0  0  0  0  0  0
   34.9160   27.5540   39.3920 H   0  0  0  0  0  0  0  0  0  0  0  0
   37.7720   19.5590   40.9040 H   0  0  0  0  0  0  0  0  0  0  0  0
   37.5680   21.1250   41.4130 H   0  0  0  0  0  0  0  0  0  0  0  0
   36.6920   20.4730   40.0910 H   0  0  0  0  0  0  0  0  0  0  0  0
   38.6170   20.2730   38.8320 H   0  0  0  0  0  0  0  0  0  0  0  0
  1  4  1  0  0  0  0
  1  8  1  0  0  0  0
  1 30  1  0  0  0  0
  1 39  1  0  0  0  0
  2  7  1  0  0  0  0
  2 12  1  0  0  0  0
  2  4  1  0  0  0  0
  3  4  2  0  0  0  0
  5 13  1  0  0  0  0
  5 28  1  0  0  0  0
  5  9  1  0  0  0  0
  6  9  2  0  0  0  0
  7  9  1  0  0  0  0
  7 10  1  0  0  0  0
  7 21  1  1  0  0  0
  8 36  1  0  0  0  0
  8 37  1  0  0  0  0
  8 38  1  0  0  0  0
 10 11  1  0  0  0  0
 10 22  1  0  0  0  0
 10 23  1  0  0  0  0
 11 12  1  0  0  0  0
 11 24  1  0  0  0  0
 11 25  1  0  0  0  0
 12 26  1  0  0  0  0
 12 27  1  0  0  0  0
 13 14  1  0  0  0  0
 13 29  1  0  0  0  0
 13 31  1  0  0  0  0
 14 15  2  0  0  0  0
 14 19  1  0  0  0  0
 15 16  1  0  0  0  0
 15 32  1  0  0  0  0
 16 17  2  0  0  0  0
 16 33  1  0  0  0  0
 17 18  1  0  0  0  0
 17 34  1  0  0  0  0
 18 19  2  0  0  0  0
 18 20  1  0  0  0  0
 19 35  1  0  0  0  0
M  END
$$$$
