../datasets/input/THROMBIN/poses/3J/ligand.pdb
 OpenBabel03111910183D

 55 57  0  0  1  0  0  0  0  0999 V2000
   38.4060   20.8440   39.7520 C   0  0  0  0  0  0  0  0  0  0  0  0
   38.0730   22.1750   39.1640 C   0  0  0  0  0  0  0  0  0  0  0  0
   37.1130   22.7750   39.5710 O   0  0  0  0  0  0  0  0  0  0  0  0
   38.7690   22.6260   38.1540 N   0  0  0  0  0  0  0  0  0  0  0  0
   38.4740   23.9860   37.6260 C   0  0  2  0  0  0  0  0  0  0  0  0
   37.0920   24.2230   37.0880 C   0  0  0  0  0  0  0  0  0  0  0  0
   36.4560   23.4370   36.4500 O   0  0  0  0  0  0  0  0  0  0  0  0
   39.5980   24.2270   36.6330 C   0  0  0  0  0  0  0  0  0  0  0  0
   40.7730   23.3070   36.9590 C   0  0  0  0  0  0  0  0  0  0  0  0
   40.0410   22.1220   37.5350 C   0  0  0  0  0  0  0  0  0  0  0  0
   36.5250   25.4320   37.3400 N   0  0  0  0  0  0  0  0  0  0  0  0
   35.1630   25.7610   36.9420 C   0  0  0  0  0  0  0  0  0  0  0  0
   34.2160   25.7000   38.1700 C   0  0  0  0  0  0  0  0  0  0  0  0
   33.2430   24.6800   38.2940 C   0  0  0  0  0  0  0  0  0  0  0  0
   32.3130   24.7470   39.2800 C   0  0  0  0  0  0  0  0  0  0  0  0
   32.2660   25.7660   40.2170 C   0  0  0  0  0  0  0  0  0  0  0  0
   33.2110   26.7930   40.1260 C   0  0  0  0  0  0  0  0  0  0  0  0
   34.1800   26.6960   39.1770 C   0  0  0  0  0  0  0  0  0  0  0  0
   33.1780   28.1610   41.2400 C   0  0  0  0  0  0  0  0  0  0  0  0
   39.0030   20.9300   41.1540 C   0  0  0  0  0  0  0  0  0  0  0  0
   42.7500   20.7740   42.2500 C   0  0  0  0  0  0  0  0  0  0  0  0
   41.2190   20.6970   42.3400 C   0  0  0  0  0  0  0  0  0  0  0  0
   40.5580   21.2520   41.1570 C   0  0  0  0  0  0  0  0  0  0  0  0
   40.8030   22.7990   41.0710 C   0  0  0  0  0  0  0  0  0  0  0  0
   42.3500   22.9620   41.0430 C   0  0  0  0  0  0  0  0  0  0  0  0
   43.1350   22.2650   42.1770 C   0  0  0  0  0  0  0  0  0  0  0  0
   39.1310   20.3430   39.1070 H   0  0  0  0  0  0  0  0  0  0  0  0
   38.6620   24.6700   38.4570 H   0  0  0  0  0  0  0  0  0  0  0  0
   39.1320   24.0640   35.6590 H   0  0  0  0  0  0  0  0  0  0  0  0
   39.8850   25.2710   36.7720 H   0  0  0  0  0  0  0  0  0  0  0  0
   41.2700   23.0090   36.0340 H   0  0  0  0  0  0  0  0  0  0  0  0
   41.5110   23.6440   37.6910 H   0  0  0  0  0  0  0  0  0  0  0  0
   40.6490   21.5090   38.2050 H   0  0  0  0  0  0  0  0  0  0  0  0
   39.7060   21.5970   36.6370 H   0  0  0  0  0  0  0  0  0  0  0  0
   37.0010   26.1180   37.9060 H   0  0  0  0  0  0  0  0  0  0  0  0
   35.0360   26.7670   36.5350 H   0  0  0  0  0  0  0  0  0  0  0  0
   34.8060   25.0980   36.1500 H   0  0  0  0  0  0  0  0  0  0  0  0
   33.3430   23.8520   37.5960 H   0  0  0  0  0  0  0  0  0  0  0  0
   31.5210   24.0030   39.3110 H   0  0  0  0  0  0  0  0  0  0  0  0
   31.5450   25.6380   41.0210 H   0  0  0  0  0  0  0  0  0  0  0  0
   34.9880   27.4210   39.1270 H   0  0  0  0  0  0  0  0  0  0  0  0
   37.5030   20.2310   39.7880 H   0  0  0  0  0  0  0  0  0  0  0  0
   38.5200   21.6750   41.7890 H   0  0  0  0  0  0  0  0  0  0  0  0
   38.8570   20.0000   41.7080 H   0  0  0  0  0  0  0  0  0  0  0  0
   43.1670   20.2890   41.3650 H   0  0  0  0  0  0  0  0  0  0  0  0
   43.1360   20.2650   43.1360 H   0  0  0  0  0  0  0  0  0  0  0  0
   40.8460   21.2300   43.2170 H   0  0  0  0  0  0  0  0  0  0  0  0
   40.9480   19.6430   42.4360 H   0  0  0  0  0  0  0  0  0  0  0  0
   40.9680   20.8510   40.2270 H   0  0  0  0  0  0  0  0  0  0  0  0
   40.4110   23.2680   40.1660 H   0  0  0  0  0  0  0  0  0  0  0  0
   40.4660   23.3090   41.9760 H   0  0  0  0  0  0  0  0  0  0  0  0
   42.8430   22.4590   40.2080 H   0  0  0  0  0  0  0  0  0  0  0  0
   42.6410   24.0100   41.1340 H   0  0  0  0  0  0  0  0  0  0  0  0
   42.8200   22.7250   43.1160 H   0  0  0  0  0  0  0  0  0  0  0  0
   44.2090   22.4180   42.0590 H   0  0  0  0  0  0  0  0  0  0  0  0
  1 27  1  0  0  0  0
  1  2  1  0  0  0  0
  1 42  1  0  0  0  0
  1 20  1  0  0  0  0
  2  4  1  0  0  0  0
  2  3  2  0  0  0  0
  4 10  1  0  0  0  0
  4  5  1  0  0  0  0
  5  8  1  0  0  0  0
  5  6  1  0  0  0  0
  5 28  1  1  0  0  0
  6  7  2  0  0  0  0
  6 11  1  0  0  0  0
  8 29  1  0  0  0  0
  8 30  1  0  0  0  0
  8  9  1  0  0  0  0
  9 31  1  0  0  0  0
  9 10  1  0  0  0  0
  9 32  1  0  0  0  0
 10 34  1  0  0  0  0
 10 33  1  0  0  0  0
 11 12  1  0  0  0  0
 11 35  1  0  0  0  0
 12 37  1  0  0  0  0
 12 36  1  0  0  0  0
 12 13  1  0  0  0  0
 13 14  2  0  0  0  0
 13 18  1  0  0  0  0
 14 38  1  0  0  0  0
 14 15  1  0  0  0  0
 15 39  1  0  0  0  0
 15 16  2  0  0  0  0
 16 17  1  0  0  0  0
 16 40  1  0  0  0  0
 17 18  2  0  0  0  0
 17 19  1  0  0  0  0
 18 41  1  0  0  0  0
 20 23  1  0  0  0  0
 20 44  1  0  0  0  0
 20 43  1  0  0  0  0
 21 45  1  0  0  0  0
 21 26  1  0  0  0  0
 21 22  1  0  0  0  0
 21 46  1  0  0  0  0
 22 23  1  0  0  0  0
 22 48  1  0  0  0  0
 22 47  1  0  0  0  0
 23 49  1  0  0  0  0
 23 24  1  0  0  0  0
 24 50  1  0  0  0  0
 24 25  1  0  0  0  0
 24 51  1  0  0  0  0
 25 52  1  0  0  0  0
 25 53  1  0  0  0  0
 25 26  1  0  0  0  0
 26 55  1  0  0  0  0
 26 54  1  0  0  0  0
M  END
$$$$
