../datasets/input/HSP90_2/poses/HSP90_101/ligand.pdb
 OpenBabel03111910143D

 20 22  0  0  0  0  0  0  0  0999 V2000
    1.9950    9.6850   24.5990 C   0  0  0  0  0  0  0  0  0  0  0  0
    1.0880   10.7650   24.5290 C   0  0  0  0  0  0  0  0  0  0  0  0
    3.3410    9.8470   24.2160 C   0  0  0  0  0  0  0  0  0  0  0  0
   -0.8770    9.0460   28.1460 C   0  0  0  0  0  0  0  0  0  0  0  0
    0.1200    9.4880   27.2120 C   0  0  0  0  0  0  0  0  0  0  0  0
    2.9000   12.1800   23.6780 C   0  0  0  0  0  0  0  0  0  0  0  0
    3.7950   11.0960   23.7560 C   0  0  0  0  0  0  0  0  0  0  0  0
    1.5530   12.0180   24.0600 C   0  0  0  0  0  0  0  0  0  0  0  0
    5.4430   11.2990   23.2850 C   0  0  0  0  0  0  0  0  0  0  0  0
    0.4850   13.3710   23.9300 C   0  0  0  0  0  0  0  0  0  0  0  0
   -0.6980    9.9810   26.1710 C   0  0  0  0  0  0  0  0  0  0  0  0
   -0.3100   10.5610   24.9390 C   0  0  0  0  0  0  0  0  0  0  0  0
   -2.1490    9.2820   27.6460 C   0  0  0  0  0  0  0  0  0  0  0  0
   -3.0420   10.2470   25.6030 N   0  0  0  0  0  0  0  0  0  0  0  0
   -4.5190   11.1260   23.7290 H   0  0  0  0  0  0  0  0  0  0  0  0
   -3.2700   11.6360   22.6560 H   0  0  0  0  0  0  0  0  0  0  0  0
   -1.2750   10.9730   24.0750 N   0  0  0  0  0  0  0  0  0  0  0  0
   -2.5720   10.7930   24.4490 C   0  0  0  0  0  0  0  0  0  0  0  0
   -2.0430    9.8720   26.3990 N   0  0  0  0  0  0  0  0  0  0  0  0
   -3.5330   11.2220   23.5390 N   0  0  0  0  0  0  0  0  0  0  0  0
  1  3  2  0  0  0  0
  1  2  1  0  0  0  0
  2  8  2  0  0  0  0
  2 12  1  0  0  0  0
  3  7  1  0  0  0  0
  4  5  1  0  0  0  0
  4 13  2  0  0  0  0
  5 11  2  0  0  0  0
  6  7  2  0  0  0  0
  6  8  1  0  0  0  0
  7  9  1  0  0  0  0
  8 10  1  0  0  0  0
 11 12  1  0  0  0  0
 11 19  1  0  0  0  0
 12 17  2  0  0  0  0
 13 19  1  0  0  0  0
 14 18  2  0  0  0  0
 14 19  1  0  0  0  0
 15 20  1  0  0  0  0
 16 20  1  0  0  0  0
 17 18  1  0  0  0  0
 18 20  1  0  0  0  0
M  END
$$$$
