../datasets/input/SCHR_THROMBIN/poses/throm_lig1a/ligand.pdb
 OpenBabel02211915413D

 52 54  0  0  1  0  0  0  0  0999 V2000
   18.3480  -13.2700   21.7070 N   0  0  0  0  0  0  0  0  0  0  0  0
   18.1770  -11.9780   21.0130 C   0  0  2  0  0  0  0  0  0  0  0  0
   17.4560  -13.7930   22.5860 C   0  0  0  0  0  0  0  0  0  0  0  0
   16.4570  -13.1700   22.9500 O   0  0  0  0  0  0  0  0  0  0  0  0
   16.7890  -11.7920   20.3610 C   0  0  0  0  0  0  0  0  0  0  0  0
   16.3130  -12.6820   19.6530 O   0  0  0  0  0  0  0  0  0  0  0  0
   19.2880  -11.9490   19.9530 C   0  0  0  0  0  0  0  0  0  0  0  0
   17.6820  -15.1940   23.1880 C   0  0  2  0  0  0  0  0  0  0  0  0
   16.1560  -10.6410   20.6070 N   0  0  0  0  0  0  0  0  0  0  0  0
   20.3710  -12.8700   20.4760 C   0  0  0  0  0  0  0  0  0  0  0  0
   16.4280  -15.9630   23.1050 N   0  3  0  0  0  0  0  0  0  0  0  0
   18.1550  -15.1270   24.6590 C   0  0  0  0  0  0  0  0  0  0  0  0
   14.8280  -10.2760   20.1410 C   0  0  0  0  0  0  0  0  0  0  0  0
   19.6280  -13.8840   21.3390 C   0  0  0  0  0  0  0  0  0  0  0  0
   19.5750  -14.6210   24.8420 C   0  0  0  0  0  0  0  0  0  0  0  0
   13.7200  -10.6280   21.1180 C   0  0  0  0  0  0  0  0  0  0  0  0
   20.6770  -15.4490   24.5360 C   0  0  0  0  0  0  0  0  0  0  0  0
   13.2090  -11.9430   21.1730 C   0  0  0  0  0  0  0  0  0  0  0  0
   21.9890  -14.9500   24.6570 C   0  0  0  0  0  0  0  0  0  0  0  0
   12.1530  -12.2550   22.0550 C   0  0  0  0  0  0  0  0  0  0  0  0
   22.2040  -13.6240   25.0840 C   0  0  0  0  0  0  0  0  0  0  0  0
   11.6070  -11.2560   22.8870 C   0  0  0  0  0  0  0  0  0  0  0  0
   21.1080  -12.8100   25.4220 C   0  0  0  0  0  0  0  0  0  0  0  0
   12.1300   -9.9480   22.8490 C   0  0  0  0  0  0  0  0  0  0  0  0
   19.8040  -13.3130   25.3100 C   0  0  0  0  0  0  0  0  0  0  0  0
   13.1830   -9.6360   21.9680 C   0  0  0  0  0  0  0  0  0  0  0  0
   11.6290   -8.9900   23.6640 F   0  0  0  0  0  0  0  0  0  0  0  0
   18.3470  -11.1870   21.7430 H   0  0  0  0  0  0  0  0  0  0  0  0
   18.9280  -12.3280   18.9940 H   0  0  0  0  0  0  0  0  0  0  0  0
   19.6660  -10.9450   19.7870 H   0  0  0  0  0  0  0  0  0  0  0  0
   18.4070  -15.7610   22.6060 H   0  0  0  0  0  0  0  0  0  0  0  0
   16.6540   -9.9370   21.1520 H   0  0  0  0  0  0  0  0  0  0  0  0
   20.9510  -13.3370   19.6790 H   0  0  0  0  0  0  0  0  0  0  0  0
   21.0640  -12.3020   21.0990 H   0  0  0  0  0  0  0  0  0  0  0  0
   16.5550  -16.8800   23.5050 H   0  0  0  0  0  0  0  0  0  0  0  0
   15.7070  -15.4620   23.6110 H   0  0  0  0  0  0  0  0  0  0  0  0
   16.1490  -16.0440   22.1380 H   0  0  0  0  0  0  0  0  0  0  0  0
   17.4690  -14.5110   25.2460 H   0  0  0  0  0  0  0  0  0  0  0  0
   18.1060  -16.1210   25.1070 H   0  0  0  0  0  0  0  0  0  0  0  0
   14.8210   -9.1970   19.9900 H   0  0  0  0  0  0  0  0  0  0  0  0
   14.6150  -10.7330   19.1720 H   0  0  0  0  0  0  0  0  0  0  0  0
   20.2300  -14.1480   22.2070 H   0  0  0  0  0  0  0  0  0  0  0  0
   19.4430  -14.7920   20.7630 H   0  0  0  0  0  0  0  0  0  0  0  0
   20.5230  -16.4640   24.1960 H   0  0  0  0  0  0  0  0  0  0  0  0
   13.6270  -12.7130   20.5370 H   0  0  0  0  0  0  0  0  0  0  0  0
   22.8340  -15.5820   24.4210 H   0  0  0  0  0  0  0  0  0  0  0  0
   11.7600  -13.2620   22.0960 H   0  0  0  0  0  0  0  0  0  0  0  0
   23.2090  -13.2400   25.1640 H   0  0  0  0  0  0  0  0  0  0  0  0
   21.2550  -11.8000   25.7770 H   0  0  0  0  0  0  0  0  0  0  0  0
   18.9820  -12.6890   25.6020 H   0  0  0  0  0  0  0  0  0  0  0  0
   13.5780   -8.6310   21.9530 H   0  0  0  0  0  0  0  0  0  0  0  0
   10.7940  -11.4930   23.5600 H   0  0  0  0  0  0  0  0  0  0  0  0
  1  2  1  0  0  0  0
  1  3  1  0  0  0  0
  1 14  1  0  0  0  0
  2  5  1  0  0  0  0
  2  7  1  0  0  0  0
  2 28  1  1  0  0  0
  3  4  2  0  0  0  0
  3  8  1  0  0  0  0
  5  6  2  0  0  0  0
  5  9  1  0  0  0  0
  7 10  1  0  0  0  0
  7 29  1  0  0  0  0
  7 30  1  0  0  0  0
  8 11  1  0  0  0  0
  8 12  1  0  0  0  0
  8 31  1  6  0  0  0
  9 13  1  0  0  0  0
  9 32  1  0  0  0  0
 10 14  1  0  0  0  0
 10 33  1  0  0  0  0
 10 34  1  0  0  0  0
 11 35  1  0  0  0  0
 11 36  1  0  0  0  0
 11 37  1  0  0  0  0
 12 15  1  0  0  0  0
 12 38  1  0  0  0  0
 12 39  1  0  0  0  0
 13 16  1  0  0  0  0
 13 40  1  0  0  0  0
 13 41  1  0  0  0  0
 14 42  1  0  0  0  0
 14 43  1  0  0  0  0
 15 17  2  0  0  0  0
 15 25  1  0  0  0  0
 16 18  2  0  0  0  0
 16 26  1  0  0  0  0
 17 19  1  0  0  0  0
 17 44  1  0  0  0  0
 18 20  1  0  0  0  0
 18 45  1  0  0  0  0
 19 21  2  0  0  0  0
 19 46  1  0  0  0  0
 20 22  2  0  0  0  0
 20 47  1  0  0  0  0
 21 23  1  0  0  0  0
 21 48  1  0  0  0  0
 22 24  1  0  0  0  0
 22 52  1  0  0  0  0
 23 25  2  0  0  0  0
 23 49  1  0  0  0  0
 24 26  2  0  0  0  0
 24 27  1  0  0  0  0
 25 50  1  0  0  0  0
 26 51  1  0  0  0  0
M  CHG  1  11   1
M  END
