../datasets/input/HSP90_3/poses/HSP90_23/ligand.pdb
 OpenBabel03111910153D

 31 35  0  0  0  0  0  0  0  0999 V2000
   -3.6710   10.4250   25.3650 O   0  0  0  0  0  0  0  0  0  0  0  0
   -2.3760   10.7200   25.0410 C   0  0  0  0  0  0  0  0  0  0  0  0
   -2.1240   11.5510   23.9330 C   0  0  0  0  0  0  0  0  0  0  0  0
   -0.8050   11.9080   23.5910 C   0  0  0  0  0  0  0  0  0  0  0  0
   -0.5930   12.7120   22.5060 O   0  0  0  0  0  0  0  0  0  0  0  0
    0.2840   11.4390   24.3610 C   0  0  0  0  0  0  0  0  0  0  0  0
    0.0240   10.6080   25.4710 C   0  0  0  0  0  0  0  0  0  0  0  0
   -1.2930   10.2330   25.8120 C   0  0  0  0  0  0  0  0  0  0  0  0
   -1.4970    9.3860   26.9350 N   0  0  0  0  0  0  0  0  0  0  0  0
   -2.2300    9.6420   28.0440 C   0  0  0  0  0  0  0  0  0  0  0  0
   -2.8230   10.6860   28.3110 O   0  0  0  0  0  0  0  0  0  0  0  0
   -2.1960    8.5370   28.8140 N   0  0  0  0  0  0  0  0  0  0  0  0
   -1.4220    7.5510   28.1960 C   0  0  0  0  0  0  0  0  0  0  0  0
   -1.0890    6.2530   28.6140 C   0  0  0  0  0  0  0  0  0  0  0  0
   -0.2570    5.4960   27.7560 C   0  0  0  0  0  0  0  0  0  0  0  0
    0.2170    6.0420   26.5340 C   0  0  0  0  0  0  0  0  0  0  0  0
   -0.1350    7.3540   26.1400 C   0  0  0  0  0  0  0  0  0  0  0  0
   -0.9730    8.0820   27.0040 C   0  0  0  0  0  0  0  0  0  0  0  0
    1.6760   11.7990   24.0330 C   0  0  0  0  0  0  0  0  0  0  0  0
    2.4450   10.9200   23.2450 C   0  0  0  0  0  0  0  0  0  0  0  0
    3.7690   11.2660   22.9260 C   0  0  0  0  0  0  0  0  0  0  0  0
    4.3510   12.4090   23.3360 N   0  0  0  0  0  0  0  0  0  0  0  0
    3.6360   13.2700   24.0930 C   0  0  0  0  0  0  0  0  0  0  0  0
    4.2370   14.4690   24.5300 C   0  0  0  0  0  0  0  0  0  0  0  0
    3.5300   15.3930   25.3220 C   0  0  0  0  0  0  0  0  0  0  0  0
    2.2010   15.1250   25.6920 C   0  0  0  0  0  0  0  0  0  0  0  0
    1.5820   13.9360   25.2680 C   0  0  0  0  0  0  0  0  0  0  0  0
    2.2870   13.0050   24.4690 C   0  0  0  0  0  0  0  0  0  0  0  0
   -4.3030   10.8460   24.8040 H   0  0  0  0  0  0  0  0  0  0  0  0
   -1.3560   12.8100   21.9560 H   0  0  0  0  0  0  0  0  0  0  0  0
   -2.6490    8.4180   29.7080 H   0  0  0  0  0  0  0  0  0  0  0  0
  2  1  1  0  0  0  0
  2  8  2  0  0  0  0
  3  2  1  0  0  0  0
  4  3  2  0  0  0  0
  4  6  1  0  0  0  0
  5  4  1  0  0  0  0
  6  7  2  0  0  0  0
  7  8  1  0  0  0  0
  8  9  1  0  0  0  0
  9 18  1  0  0  0  0
  9 10  1  0  0  0  0
 10 11  2  0  0  0  0
 10 12  1  0  0  0  0
 12 31  1  0  0  0  0
 13 14  1  0  0  0  0
 13 12  1  0  0  0  0
 15 14  2  0  0  0  0
 16 15  1  0  0  0  0
 17 16  2  0  0  0  0
 17 18  1  0  0  0  0
 18 13  2  0  0  0  0
 19  6  1  0  0  0  0
 19 28  2  0  0  0  0
 20 19  1  0  0  0  0
 21 20  2  0  0  0  0
 21 22  1  0  0  0  0
 22 23  2  0  0  0  0
 23 28  1  0  0  0  0
 23 24  1  0  0  0  0
 24 25  2  0  0  0  0
 25 26  1  0  0  0  0
 27 26  2  0  0  0  0
 28 27  1  0  0  0  0
 29  1  1  0  0  0  0
 30  5  1  0  0  0  0
M  END
$$$$
