../datasets/input/THROMBIN/poses/3F/ligand.pdb
 OpenBabel02221916063D

 48 49  0  0  1  0  0  0  0  0999 V2000
   38.3810   21.0550   39.7390 C   0  0  0  0  0  0  0  0  0  0  0  0
   38.0860   22.3280   39.1000 C   0  0  0  0  0  0  0  0  0  0  0  0
   37.0680   22.9050   39.3960 O   0  0  0  0  0  0  0  0  0  0  0  0
   38.9530   21.0720   41.1860 C   0  0  0  0  0  0  0  0  0  0  0  0
   38.8650   22.8160   38.1420 N   0  0  0  0  0  0  0  0  0  0  0  0
   38.5100   24.1140   37.5830 C   0  0  2  0  0  0  0  0  0  0  0  0
   37.1400   24.1870   37.0490 C   0  0  0  0  0  0  0  0  0  0  0  0
   36.7170   23.2610   36.3900 O   0  0  0  0  0  0  0  0  0  0  0  0
   39.5590   24.2680   36.4860 C   0  0  0  0  0  0  0  0  0  0  0  0
   40.7160   23.3730   36.7830 C   0  0  0  0  0  0  0  0  0  0  0  0
   40.0950   22.2470   37.5400 C   0  0  0  0  0  0  0  0  0  0  0  0
   36.4800   25.2830   37.3000 N   0  0  0  0  0  0  0  0  0  0  0  0
   35.0990   25.5770   36.8900 C   0  0  0  0  0  0  0  0  0  0  0  0
   34.1170   25.5580   38.0580 C   0  0  0  0  0  0  0  0  0  0  0  0
   33.2240   24.4770   38.1130 C   0  0  0  0  0  0  0  0  0  0  0  0
   32.3090   24.4980   39.1420 C   0  0  0  0  0  0  0  0  0  0  0  0
   32.2710   25.5290   40.1160 C   0  0  0  0  0  0  0  0  0  0  0  0
   33.1330   26.5670   39.9710 C   0  0  0  0  0  0  0  0  0  0  0  0
   34.0600   26.6250   38.9760 C   0  0  0  0  0  0  0  0  0  0  0  0
   33.0600   27.9050   41.0620 C   0  0  0  0  0  0  0  0  0  0  0  0
   39.0210   19.6160   41.7310 C   0  0  0  0  0  0  0  0  0  0  0  0
   38.1180   18.5830   40.9990 C   0  0  0  0  0  0  0  0  0  0  0  0
   40.4510   19.0910   41.6540 C   0  0  0  0  0  0  0  0  0  0  0  0
   39.0550   20.4860   39.0960 H   0  0  0  0  0  0  0  0  0  0  0  0
   38.7670   24.8000   38.3950 H   0  0  0  0  0  0  0  0  0  0  0  0
   39.1700   24.0650   35.4860 H   0  0  0  0  0  0  0  0  0  0  0  0
   39.9340   25.2770   36.6670 H   0  0  0  0  0  0  0  0  0  0  0  0
   41.1620   23.0100   35.8540 H   0  0  0  0  0  0  0  0  0  0  0  0
   41.4880   23.7390   37.4630 H   0  0  0  0  0  0  0  0  0  0  0  0
   40.7440   21.6950   38.2240 H   0  0  0  0  0  0  0  0  0  0  0  0
   39.8210   21.4410   36.8550 H   0  0  0  0  0  0  0  0  0  0  0  0
   36.9140   25.9400   37.9310 H   0  0  0  0  0  0  0  0  0  0  0  0
   35.0450   26.6230   36.5770 H   0  0  0  0  0  0  0  0  0  0  0  0
   34.8380   24.8610   36.1060 H   0  0  0  0  0  0  0  0  0  0  0  0
   33.1390   23.6440   37.4200 H   0  0  0  0  0  0  0  0  0  0  0  0
   31.5100   23.7650   39.0710 H   0  0  0  0  0  0  0  0  0  0  0  0
   31.5770   25.5960   40.9510 H   0  0  0  0  0  0  0  0  0  0  0  0
   34.6990   27.5010   38.8900 H   0  0  0  0  0  0  0  0  0  0  0  0
   37.3700   20.6490   39.8230 H   0  0  0  0  0  0  0  0  0  0  0  0
   38.7090   19.6480   42.7770 H   0  0  0  0  0  0  0  0  0  0  0  0
   38.4100   18.4250   39.9590 H   0  0  0  0  0  0  0  0  0  0  0  0
   38.3080   17.6400   41.5170 H   0  0  0  0  0  0  0  0  0  0  0  0
   37.0640   18.8030   41.1810 H   0  0  0  0  0  0  0  0  0  0  0  0
   40.9510   19.6130   42.4730 H   0  0  0  0  0  0  0  0  0  0  0  0
   40.5580   18.0120   41.7850 H   0  0  0  0  0  0  0  0  0  0  0  0
   40.8150   19.4730   40.6980 H   0  0  0  0  0  0  0  0  0  0  0  0
   39.9010   21.6130   41.2120 H   0  0  0  0  0  0  0  0  0  0  0  0
   38.2600   21.6520   41.7990 H   0  0  0  0  0  0  0  0  0  0  0  0
  1 24  1  0  0  0  0
  1  2  1  0  0  0  0
  1 39  1  0  0  0  0
  1  4  1  0  0  0  0
  2  5  1  0  0  0  0
  2  3  2  0  0  0  0
  4 47  1  0  0  0  0
  4 21  1  0  0  0  0
  4 48  1  0  0  0  0
  5 11  1  0  0  0  0
  5  6  1  0  0  0  0
  6  9  1  0  0  0  0
  6  7  1  0  0  0  0
  6 25  1  1  0  0  0
  7  8  2  0  0  0  0
  7 12  1  0  0  0  0
  9 26  1  0  0  0  0
  9 27  1  0  0  0  0
  9 10  1  0  0  0  0
 10 28  1  0  0  0  0
 10 29  1  0  0  0  0
 10 11  1  0  0  0  0
 11 31  1  0  0  0  0
 11 30  1  0  0  0  0
 12 13  1  0  0  0  0
 12 32  1  0  0  0  0
 13 34  1  0  0  0  0
 13 33  1  0  0  0  0
 13 14  1  0  0  0  0
 14 15  2  0  0  0  0
 14 19  1  0  0  0  0
 15 35  1  0  0  0  0
 15 16  1  0  0  0  0
 16 36  1  0  0  0  0
 16 17  2  0  0  0  0
 17 18  1  0  0  0  0
 17 37  1  0  0  0  0
 18 19  2  0  0  0  0
 18 20  1  0  0  0  0
 19 38  1  0  0  0  0
 21 22  1  0  0  0  0
 21 23  1  0  0  0  0
 21 40  1  0  0  0  0
 22 41  1  0  0  0  0
 22 43  1  0  0  0  0
 22 42  1  0  0  0  0
 23 46  1  0  0  0  0
 23 45  1  0  0  0  0
 23 44  1  0  0  0  0
M  END
