../datasets/input/FXR_2/poses/FXR82/ligand.pdb
 OpenBabel02211915413D

 57 61  0  0  0  0  0  0  0  0999 V2000
   40.6500   14.6450    1.4800 N   0  0  0  0  0  0  0  0  0  0  0  0
   44.6120   11.9330    2.8150 N   0  0  0  0  0  0  0  0  0  0  0  0
   35.7270   18.6670   -0.6370 C   0  0  0  0  0  0  0  0  0  0  0  0
   36.6660   17.7910    0.1360 C   0  0  0  0  0  0  0  0  0  0  0  0
   38.0540   18.0150    0.0880 C   0  0  0  0  0  0  0  0  0  0  0  0
   38.9410   17.1740    0.7900 C   0  0  0  0  0  0  0  0  0  0  0  0
   38.4560   16.0250    1.4480 C   0  0  0  0  0  0  0  0  0  0  0  0
   39.3790   15.0240    2.1250 C   0  0  0  0  0  0  0  0  0  0  0  0
   41.6380   14.0590    2.1820 C   0  0  0  0  0  0  0  0  0  0  0  0
   42.8240   13.6660    1.2700 C   0  0  0  0  0  0  0  0  0  0  0  0
   42.8880   12.1480    1.0520 C   0  0  0  0  0  0  0  0  0  0  0  0
   43.3470   11.3950    2.2950 C   0  0  0  0  0  0  0  0  0  0  0  0
   44.6900   13.3980    3.0060 C   0  0  0  0  0  0  0  0  0  0  0  0
   44.1960   14.1630    1.7630 C   0  0  0  0  0  0  0  0  0  0  0  0
   44.3450   10.5720    5.1850 C   0  0  0  0  0  0  0  0  0  0  0  0
   43.8440   11.6690    5.9130 C   0  0  0  0  0  0  0  0  0  0  0  0
   42.8660   11.4750    6.9030 C   0  0  0  0  0  0  0  0  0  0  0  0
   42.3790   10.1900    7.1630 C   0  0  0  0  0  0  0  0  0  0  0  0
   42.8810    9.1010    6.4430 C   0  0  0  0  0  0  0  0  0  0  0  0
   43.8680    9.2740    5.4600 C   0  0  0  0  0  0  0  0  0  0  0  0
   42.3620   14.3160   -0.0020 C   0  0  0  0  0  0  0  0  0  0  0  0
   43.0650   14.3880   -1.2160 C   0  0  0  0  0  0  0  0  0  0  0  0
   42.3950   14.8970   -2.3430 C   0  0  0  0  0  0  0  0  0  0  0  0
   41.0410   15.2820   -2.2450 C   0  0  0  0  0  0  0  0  0  0  0  0
   40.3490   15.1990   -1.0200 C   0  0  0  0  0  0  0  0  0  0  0  0
   41.0510   14.7630    0.1210 C   0  0  0  0  0  0  0  0  0  0  0  0
   37.0660   15.7980    1.4990 C   0  0  0  0  0  0  0  0  0  0  0  0
   36.1820   16.6890    0.8680 C   0  0  0  0  0  0  0  0  0  0  0  0
   34.5170   18.3660   -0.6980 O   0  5  0  0  0  0  0  0  0  0  0  0
   36.1530   19.5860   -1.3660 O   0  0  0  0  0  0  0  0  0  0  0  0
   41.6420   13.8790    3.4040 O   0  0  0  0  0  0  0  0  0  0  0  0
   45.7300    9.6450    3.0800 O   0  0  0  0  0  0  0  0  0  0  0  0
   46.6540   11.6470    4.3450 O   0  0  0  0  0  0  0  0  0  0  0  0
   44.3230    8.1880    4.8020 F   0  0  0  0  0  0  0  0  0  0  0  0
   43.3260   15.0550   -3.9930 Br  0  0  0  0  0  0  0  0  0  0  0  0
   45.5070   10.8760    3.8460 S   0  0  0  0  0  0  0  0  0  0  0  0
   42.2530    7.5480    6.7650 Cl  0  0  0  0  0  0  0  0  0  0  0  0
   38.4200   18.8350   -0.5090 H   0  0  0  0  0  0  0  0  0  0  0  0
   40.0030   17.3620    0.7480 H   0  0  0  0  0  0  0  0  0  0  0  0
   39.5960   15.4390    3.1100 H   0  0  0  0  0  0  0  0  0  0  0  0
   38.8270   14.1040    2.3160 H   0  0  0  0  0  0  0  0  0  0  0  0
   43.5580   11.9150    0.2250 H   0  0  0  0  0  0  0  0  0  0  0  0
   41.9060   11.7760    0.7590 H   0  0  0  0  0  0  0  0  0  0  0  0
   42.5850   11.4270    3.0750 H   0  0  0  0  0  0  0  0  0  0  0  0
   43.4800   10.3450    2.0410 H   0  0  0  0  0  0  0  0  0  0  0  0
   45.7210   13.6860    3.2160 H   0  0  0  0  0  0  0  0  0  0  0  0
   44.1100   13.6900    3.8780 H   0  0  0  0  0  0  0  0  0  0  0  0
   44.1600   15.2330    1.9790 H   0  0  0  0  0  0  0  0  0  0  0  0
   44.9340   14.0400    0.9700 H   0  0  0  0  0  0  0  0  0  0  0  0
   44.2210   12.6560    5.7270 H   0  0  0  0  0  0  0  0  0  0  0  0
   42.4790   12.2940    7.4770 H   0  0  0  0  0  0  0  0  0  0  0  0
   41.6220   10.0370    7.9180 H   0  0  0  0  0  0  0  0  0  0  0  0
   44.0860   14.0540   -1.2910 H   0  0  0  0  0  0  0  0  0  0  0  0
   40.5290   15.6560   -3.1100 H   0  0  0  0  0  0  0  0  0  0  0  0
   39.3040   15.4620   -0.9840 H   0  0  0  0  0  0  0  0  0  0  0  0
   36.6670   14.9320    2.0030 H   0  0  0  0  0  0  0  0  0  0  0  0
   35.1220   16.4980    0.9050 H   0  0  0  0  0  0  0  0  0  0  0  0
  1  8  1  0  0  0  0
  1  9  1  0  0  0  0
  1 26  1  0  0  0  0
  2 12  1  0  0  0  0
  2 13  1  0  0  0  0
  2 36  1  0  0  0  0
  3  4  1  0  0  0  0
  3 29  1  0  0  0  0
  3 30  2  0  0  0  0
  4  5  1  0  0  0  0
  4 28  2  0  0  0  0
  5  6  2  0  0  0  0
  5 38  1  0  0  0  0
  6  7  1  0  0  0  0
  6 39  1  0  0  0  0
  7  8  1  0  0  0  0
  7 27  2  0  0  0  0
  8 40  1  0  0  0  0
  8 41  1  0  0  0  0
  9 10  1  0  0  0  0
  9 31  2  0  0  0  0
 10 11  1  0  0  0  0
 10 14  1  0  0  0  0
 10 21  1  0  0  0  0
 11 12  1  0  0  0  0
 11 42  1  0  0  0  0
 11 43  1  0  0  0  0
 12 44  1  0  0  0  0
 12 45  1  0  0  0  0
 13 14  1  0  0  0  0
 13 46  1  0  0  0  0
 13 47  1  0  0  0  0
 14 48  1  0  0  0  0
 14 49  1  0  0  0  0
 15 16  1  0  0  0  0
 15 20  2  0  0  0  0
 15 36  1  0  0  0  0
 16 17  2  0  0  0  0
 16 50  1  0  0  0  0
 17 18  1  0  0  0  0
 17 51  1  0  0  0  0
 18 19  2  0  0  0  0
 18 52  1  0  0  0  0
 19 20  1  0  0  0  0
 19 37  1  0  0  0  0
 20 34  1  0  0  0  0
 21 22  1  0  0  0  0
 21 26  2  0  0  0  0
 22 23  2  0  0  0  0
 22 53  1  0  0  0  0
 23 24  1  0  0  0  0
 23 35  1  0  0  0  0
 24 25  2  0  0  0  0
 24 54  1  0  0  0  0
 25 26  1  0  0  0  0
 25 55  1  0  0  0  0
 27 28  1  0  0  0  0
 27 56  1  0  0  0  0
 28 57  1  0  0  0  0
 32 36  2  0  0  0  0
 33 36  2  0  0  0  0
M  CHG  1  29  -1
M  END
