../datasets/input/FXR_2/poses/FXR88/ligand.pdb
 OpenBabel02211915413D

 60 64  0  0  0  0  0  0  0  0999 V2000
   40.6470   14.6440    1.6550 N   0  0  0  0  0  0  0  0  0  0  0  0
   44.3040   11.6050    3.1320 N   0  0  0  0  0  0  0  0  0  0  0  0
   35.7630   18.6330   -0.6600 C   0  0  0  0  0  0  0  0  0  0  0  0
   36.6930   17.7550    0.1200 C   0  0  0  0  0  0  0  0  0  0  0  0
   38.0830   17.9730    0.0880 C   0  0  0  0  0  0  0  0  0  0  0  0
   38.9560   17.1450    0.8240 C   0  0  0  0  0  0  0  0  0  0  0  0
   38.4530   16.0160    1.5030 C   0  0  0  0  0  0  0  0  0  0  0  0
   39.3560   15.0430    2.2420 C   0  0  0  0  0  0  0  0  0  0  0  0
   41.5890   14.0480    2.4090 C   0  0  0  0  0  0  0  0  0  0  0  0
   42.7380   13.4910    1.5410 C   0  0  0  0  0  0  0  0  0  0  0  0
   42.6150   11.9680    1.3930 C   0  0  0  0  0  0  0  0  0  0  0  0
   42.9610   11.2310    2.6780 C   0  0  0  0  0  0  0  0  0  0  0  0
   44.5720   13.0500    3.3060 C   0  0  0  0  0  0  0  0  0  0  0  0
   44.1540   13.8500    2.0470 C   0  0  0  0  0  0  0  0  0  0  0  0
   44.2110    9.8040    5.2090 C   0  0  0  0  0  0  0  0  0  0  0  0
   43.6330   10.8620    5.9500 C   0  0  0  0  0  0  0  0  0  0  0  0
   42.7110   10.6240    6.9830 C   0  0  0  0  0  0  0  0  0  0  0  0
   42.3530    9.3060    7.2980 C   0  0  0  0  0  0  0  0  0  0  0  0
   42.9300    8.2480    6.5770 C   0  0  0  0  0  0  0  0  0  0  0  0
   43.8610    8.4570    5.5320 C   0  0  0  0  0  0  0  0  0  0  0  0
   42.3570   14.1200    0.2300 C   0  0  0  0  0  0  0  0  0  0  0  0
   43.0720   14.0550   -0.9790 C   0  0  0  0  0  0  0  0  0  0  0  0
   42.4520   14.5390   -2.1460 C   0  0  0  0  0  0  0  0  0  0  0  0
   41.1350   15.0400   -2.0920 C   0  0  0  0  0  0  0  0  0  0  0  0
   40.4280   15.0900   -0.8740 C   0  0  0  0  0  0  0  0  0  0  0  0
   41.0800   14.6680    0.3020 C   0  0  0  0  0  0  0  0  0  0  0  0
   37.0640   15.7860    1.5240 C   0  0  0  0  0  0  0  0  0  0  0  0
   36.1950   16.6620    0.8550 C   0  0  0  0  0  0  0  0  0  0  0  0
   34.5390   18.3900   -0.6610 O   0  5  0  0  0  0  0  0  0  0  0  0
   36.1980   19.4990   -1.4420 O   0  0  0  0  0  0  0  0  0  0  0  0
   41.5690   13.9550    3.6390 O   0  0  0  0  0  0  0  0  0  0  0  0
   45.4070    9.3660    2.7830 O   0  0  0  0  0  0  0  0  0  0  0  0
   46.4740   11.0090    4.4020 O   0  0  0  0  0  0  0  0  0  0  0  0
   44.3470    7.1750    4.8490 C   0  0  0  0  0  0  0  0  0  0  0  0
   43.3800   14.4840   -3.8040 Br  0  0  0  0  0  0  0  0  0  0  0  0
   45.2760   10.3640    3.8450 S   0  0  0  0  0  0  0  0  0  0  0  0
   44.6450    6.2720    5.7830 F   0  0  0  0  0  0  0  0  0  0  0  0
   43.3130    6.6720    4.1830 F   0  0  0  0  0  0  0  0  0  0  0  0
   45.4030    7.2440    4.0530 F   0  0  0  0  0  0  0  0  0  0  0  0
   38.4620   18.7850   -0.5130 H   0  0  0  0  0  0  0  0  0  0  0  0
   40.0190   17.3260    0.8050 H   0  0  0  0  0  0  0  0  0  0  0  0
   39.5340   15.4830    3.2240 H   0  0  0  0  0  0  0  0  0  0  0  0
   38.8010   14.1240    2.4310 H   0  0  0  0  0  0  0  0  0  0  0  0
   43.2610   11.6140    0.5900 H   0  0  0  0  0  0  0  0  0  0  0  0
   41.5960   11.7030    1.1050 H   0  0  0  0  0  0  0  0  0  0  0  0
   42.2350   11.4390    3.4650 H   0  0  0  0  0  0  0  0  0  0  0  0
   42.9120   10.1580    2.5080 H   0  0  0  0  0  0  0  0  0  0  0  0
   45.6340   13.2100    3.5020 H   0  0  0  0  0  0  0  0  0  0  0  0
   44.0390   13.4220    4.1800 H   0  0  0  0  0  0  0  0  0  0  0  0
   44.2260   14.9210    2.2490 H   0  0  0  0  0  0  0  0  0  0  0  0
   44.8770   13.6440    1.2580 H   0  0  0  0  0  0  0  0  0  0  0  0
   43.9050   11.8780    5.7260 H   0  0  0  0  0  0  0  0  0  0  0  0
   42.2790   11.4480    7.5330 H   0  0  0  0  0  0  0  0  0  0  0  0
   41.6440    9.1070    8.0930 H   0  0  0  0  0  0  0  0  0  0  0  0
   42.6430    7.2430    6.8270 H   0  0  0  0  0  0  0  0  0  0  0  0
   44.0560   13.6200   -1.0170 H   0  0  0  0  0  0  0  0  0  0  0  0
   40.6580   15.3840   -2.9890 H   0  0  0  0  0  0  0  0  0  0  0  0
   39.4030   15.4230   -0.8810 H   0  0  0  0  0  0  0  0  0  0  0  0
   36.6520   14.9350    2.0400 H   0  0  0  0  0  0  0  0  0  0  0  0
   35.1350   16.4720    0.8750 H   0  0  0  0  0  0  0  0  0  0  0  0
  1  8  1  0  0  0  0
  1  9  1  0  0  0  0
  1 26  1  0  0  0  0
  2 12  1  0  0  0  0
  2 13  1  0  0  0  0
  2 36  1  0  0  0  0
  3  4  1  0  0  0  0
  3 29  1  0  0  0  0
  3 30  2  0  0  0  0
  4  5  1  0  0  0  0
  4 28  2  0  0  0  0
  5  6  2  0  0  0  0
  5 40  1  0  0  0  0
  6  7  1  0  0  0  0
  6 41  1  0  0  0  0
  7  8  1  0  0  0  0
  7 27  2  0  0  0  0
  8 42  1  0  0  0  0
  8 43  1  0  0  0  0
  9 10  1  0  0  0  0
  9 31  2  0  0  0  0
 10 11  1  0  0  0  0
 10 14  1  0  0  0  0
 10 21  1  0  0  0  0
 11 12  1  0  0  0  0
 11 44  1  0  0  0  0
 11 45  1  0  0  0  0
 12 46  1  0  0  0  0
 12 47  1  0  0  0  0
 13 14  1  0  0  0  0
 13 48  1  0  0  0  0
 13 49  1  0  0  0  0
 14 50  1  0  0  0  0
 14 51  1  0  0  0  0
 15 16  1  0  0  0  0
 15 20  2  0  0  0  0
 15 36  1  0  0  0  0
 16 17  2  0  0  0  0
 16 52  1  0  0  0  0
 17 18  1  0  0  0  0
 17 53  1  0  0  0  0
 18 19  2  0  0  0  0
 18 54  1  0  0  0  0
 19 20  1  0  0  0  0
 19 55  1  0  0  0  0
 20 34  1  0  0  0  0
 21 22  1  0  0  0  0
 21 26  2  0  0  0  0
 22 23  2  0  0  0  0
 22 56  1  0  0  0  0
 23 24  1  0  0  0  0
 23 35  1  0  0  0  0
 24 25  2  0  0  0  0
 24 57  1  0  0  0  0
 25 26  1  0  0  0  0
 25 58  1  0  0  0  0
 27 28  1  0  0  0  0
 27 59  1  0  0  0  0
 28 60  1  0  0  0  0
 32 36  2  0  0  0  0
 33 36  2  0  0  0  0
 34 37  1  0  0  0  0
 34 38  1  0  0  0  0
 34 39  1  0  0  0  0
M  CHG  1  29  -1
M  END
