../datasets/input/FXR_2/poses/FXR76/ligand.pdb
 OpenBabel02211915413D

 57 61  0  0  0  0  0  0  0  0999 V2000
   40.6270   14.5700    1.5750 N   0  0  0  0  0  0  0  0  0  0  0  0
   44.5390   11.7590    2.9480 N   0  0  0  0  0  0  0  0  0  0  0  0
   35.7610   18.6050   -0.6600 C   0  0  0  0  0  0  0  0  0  0  0  0
   36.6820   17.7300    0.1350 C   0  0  0  0  0  0  0  0  0  0  0  0
   38.0700   17.9490    0.1080 C   0  0  0  0  0  0  0  0  0  0  0  0
   38.9430   17.1080    0.8270 C   0  0  0  0  0  0  0  0  0  0  0  0
   38.4420   15.9660    1.4850 C   0  0  0  0  0  0  0  0  0  0  0  0
   39.3480   14.9670    2.1890 C   0  0  0  0  0  0  0  0  0  0  0  0
   41.5870   13.9660    2.3010 C   0  0  0  0  0  0  0  0  0  0  0  0
   42.7860   13.5500    1.4160 C   0  0  0  0  0  0  0  0  0  0  0  0
   42.8260   12.0320    1.1880 C   0  0  0  0  0  0  0  0  0  0  0  0
   43.2630   11.2560    2.4240 C   0  0  0  0  0  0  0  0  0  0  0  0
   44.6230   13.2200    3.1800 C   0  0  0  0  0  0  0  0  0  0  0  0
   44.1570   14.0190    1.9450 C   0  0  0  0  0  0  0  0  0  0  0  0
   44.2000   10.2460    5.2350 C   0  0  0  0  0  0  0  0  0  0  0  0
   43.5420   11.2540    5.9680 C   0  0  0  0  0  0  0  0  0  0  0  0
   42.5440   10.9080    6.9040 C   0  0  0  0  0  0  0  0  0  0  0  0
   42.2060    9.5590    7.1100 C   0  0  0  0  0  0  0  0  0  0  0  0
   42.8600    8.5540    6.3750 C   0  0  0  0  0  0  0  0  0  0  0  0
   43.8490    8.8960    5.4300 C   0  0  0  0  0  0  0  0  0  0  0  0
   42.3650   14.2100    0.1320 C   0  0  0  0  0  0  0  0  0  0  0  0
   43.0890   14.2590   -1.0730 C   0  0  0  0  0  0  0  0  0  0  0  0
   42.4430   14.7630   -2.2170 C   0  0  0  0  0  0  0  0  0  0  0  0
   41.0930   15.1660   -2.1450 C   0  0  0  0  0  0  0  0  0  0  0  0
   40.3810   15.1080   -0.9300 C   0  0  0  0  0  0  0  0  0  0  0  0
   41.0570   14.6750    0.2270 C   0  0  0  0  0  0  0  0  0  0  0  0
   37.0510   15.7450    1.5130 C   0  0  0  0  0  0  0  0  0  0  0  0
   36.1790   16.6360    0.8660 C   0  0  0  0  0  0  0  0  0  0  0  0
   34.5450   18.3320   -0.7110 O   0  5  0  0  0  0  0  0  0  0  0  0
   36.2090   19.4980   -1.4110 O   0  0  0  0  0  0  0  0  0  0  0  0
   41.5640   13.7890    3.5220 O   0  0  0  0  0  0  0  0  0  0  0  0
   45.6960    9.4710    3.1750 O   0  0  0  0  0  0  0  0  0  0  0  0
   46.5190   11.4340    4.5600 O   0  0  0  0  0  0  0  0  0  0  0  0
   43.3890   14.8770   -3.8600 Br  0  0  0  0  0  0  0  0  0  0  0  0
   45.4120   10.6730    3.9720 S   0  0  0  0  0  0  0  0  0  0  0  0
   44.3400    8.1270    4.8530 H   0  0  0  0  0  0  0  0  0  0  0  0
   38.4470   18.7650   -0.4900 H   0  0  0  0  0  0  0  0  0  0  0  0
   40.0060   17.2890    0.7980 H   0  0  0  0  0  0  0  0  0  0  0  0
   39.5460   15.3890    3.1770 H   0  0  0  0  0  0  0  0  0  0  0  0
   38.7850   14.0520    2.3700 H   0  0  0  0  0  0  0  0  0  0  0  0
   43.5000   11.7960    0.3640 H   0  0  0  0  0  0  0  0  0  0  0  0
   41.8400   11.6820    0.8830 H   0  0  0  0  0  0  0  0  0  0  0  0
   42.5010   11.3050    3.2040 H   0  0  0  0  0  0  0  0  0  0  0  0
   43.3750   10.2070    2.1680 H   0  0  0  0  0  0  0  0  0  0  0  0
   45.6530   13.4930    3.4120 H   0  0  0  0  0  0  0  0  0  0  0  0
   44.0320   13.4900    4.0530 H   0  0  0  0  0  0  0  0  0  0  0  0
   44.1300   15.0840    2.1820 H   0  0  0  0  0  0  0  0  0  0  0  0
   44.9050   13.9030    1.1600 H   0  0  0  0  0  0  0  0  0  0  0  0
   43.8120   12.2850    5.8200 H   0  0  0  0  0  0  0  0  0  0  0  0
   42.0400   11.6760    7.4700 H   0  0  0  0  0  0  0  0  0  0  0  0
   41.4510    9.2940    7.8370 H   0  0  0  0  0  0  0  0  0  0  0  0
   42.6010    7.5210    6.5400 H   0  0  0  0  0  0  0  0  0  0  0  0
   44.1040   13.9030   -1.1250 H   0  0  0  0  0  0  0  0  0  0  0  0
   40.5980   15.5320   -3.0250 H   0  0  0  0  0  0  0  0  0  0  0  0
   39.3370   15.3800   -0.9190 H   0  0  0  0  0  0  0  0  0  0  0  0
   36.6400   14.8810    2.0120 H   0  0  0  0  0  0  0  0  0  0  0  0
   35.1190   16.4490    0.8890 H   0  0  0  0  0  0  0  0  0  0  0  0
  1  8  1  0  0  0  0
  1  9  1  0  0  0  0
  1 26  1  0  0  0  0
  2 12  1  0  0  0  0
  2 13  1  0  0  0  0
  2 35  1  0  0  0  0
  3  4  1  0  0  0  0
  3 29  1  0  0  0  0
  3 30  2  0  0  0  0
  4  5  1  0  0  0  0
  4 28  2  0  0  0  0
  5  6  2  0  0  0  0
  5 37  1  0  0  0  0
  6  7  1  0  0  0  0
  6 38  1  0  0  0  0
  7  8  1  0  0  0  0
  7 27  2  0  0  0  0
  8 39  1  0  0  0  0
  8 40  1  0  0  0  0
  9 10  1  0  0  0  0
  9 31  2  0  0  0  0
 10 11  1  0  0  0  0
 10 14  1  0  0  0  0
 10 21  1  0  0  0  0
 11 12  1  0  0  0  0
 11 41  1  0  0  0  0
 11 42  1  0  0  0  0
 12 43  1  0  0  0  0
 12 44  1  0  0  0  0
 13 14  1  0  0  0  0
 13 45  1  0  0  0  0
 13 46  1  0  0  0  0
 14 47  1  0  0  0  0
 14 48  1  0  0  0  0
 15 16  1  0  0  0  0
 15 20  2  0  0  0  0
 15 35  1  0  0  0  0
 16 17  2  0  0  0  0
 16 49  1  0  0  0  0
 17 18  1  0  0  0  0
 17 50  1  0  0  0  0
 18 19  2  0  0  0  0
 18 51  1  0  0  0  0
 19 20  1  0  0  0  0
 19 52  1  0  0  0  0
 20 36  1  0  0  0  0
 21 22  1  0  0  0  0
 21 26  2  0  0  0  0
 22 23  2  0  0  0  0
 22 53  1  0  0  0  0
 23 24  1  0  0  0  0
 23 34  1  0  0  0  0
 24 25  2  0  0  0  0
 24 54  1  0  0  0  0
 25 26  1  0  0  0  0
 25 55  1  0  0  0  0
 27 28  1  0  0  0  0
 27 56  1  0  0  0  0
 28 57  1  0  0  0  0
 32 35  2  0  0  0  0
 33 35  2  0  0  0  0
M  CHG  1  29  -1
M  END
