../datasets/input/FXR_1/poses/FXR47/ligand.pdb
 OpenBabel03111910173D

 61 65  0  0  0  0  0  0  0  0999 V2000
   39.6550   14.1430    1.4300 N   0  0  0  0  0  0  0  0  0  0  0  0
   41.7440   11.5550    5.2180 N   0  0  0  0  0  0  0  0  0  0  0  0
   42.9840   11.3010    1.2730 N   0  0  0  0  0  0  0  0  0  0  0  0
   42.4490   12.4410    0.7490 N   0  0  0  0  0  0  0  0  0  0  0  0
   40.9710   14.3300    1.6390 C   0  0  0  0  0  0  0  0  0  0  0  0
   38.6790   15.0710    0.9700 C   0  0  0  0  0  0  0  0  0  0  0  0
   37.3710   14.6040    0.7200 C   0  0  0  0  0  0  0  0  0  0  0  0
   36.3700   15.4840    0.2640 C   0  0  0  0  0  0  0  0  0  0  0  0
   36.6580   16.8500    0.0740 C   0  0  0  0  0  0  0  0  0  0  0  0
   37.9680   17.3220    0.2990 C   0  0  0  0  0  0  0  0  0  0  0  0
   38.9670   16.4270    0.7150 C   0  0  0  0  0  0  0  0  0  0  0  0
   41.7440   13.0950    1.7580 C   0  0  0  0  0  0  0  0  0  0  0  0
   41.9100   12.4400    2.9400 C   0  0  0  0  0  0  0  0  0  0  0  0
   41.5030   12.7330    4.3610 C   0  0  0  0  0  0  0  0  0  0  0  0
   43.0170   10.8290    4.9780 C   0  0  0  0  0  0  0  0  0  0  0  0
   43.1380   10.2980    3.5370 C   0  0  0  0  0  0  0  0  0  0  0  0
   42.6900   11.3320    2.5640 C   0  0  0  0  0  0  0  0  0  0  0  0
   42.6700   12.7460   -0.6340 C   0  0  0  0  0  0  0  0  0  0  0  0
   43.6220   11.9930   -1.3630 C   0  0  0  0  0  0  0  0  0  0  0  0
   43.8220   12.2010   -2.7390 C   0  0  0  0  0  0  0  0  0  0  0  0
   43.0820   13.1890   -3.4110 C   0  0  0  0  0  0  0  0  0  0  0  0
   42.1590   13.9700   -2.7000 C   0  0  0  0  0  0  0  0  0  0  0  0
   41.9610   13.7610   -1.3260 C   0  0  0  0  0  0  0  0  0  0  0  0
   42.4080   12.6760    7.6850 C   0  0  0  0  0  0  0  0  0  0  0  0
   42.1720   13.8890    8.2760 C   0  0  0  0  0  0  0  0  0  0  0  0
   43.3280   14.4280    8.9160 C   0  0  0  0  0  0  0  0  0  0  0  0
   44.4370   13.6370    8.7770 C   0  0  0  0  0  0  0  0  0  0  0  0
   41.5310   15.4130    1.7530 O   0  0  0  0  0  0  0  0  0  0  0  0
   39.9340   12.3730    6.8710 O   0  0  0  0  0  0  0  0  0  0  0  0
   41.3340   10.2840    7.4090 O   0  0  0  0  0  0  0  0  0  0  0  0
   41.2080   11.6420    6.8580 S   0  0  0  0  0  0  0  0  0  0  0  0
   44.0720   12.1880    7.8830 S   0  0  0  0  0  0  0  0  0  0  0  0
   38.3520   18.7380    0.1160 C   0  0  0  0  0  0  0  0  0  0  0  0
   39.4810   19.0910   -0.2260 O   0  0  0  0  0  0  0  0  0  0  0  0
   37.3510   19.5830    0.4230 O   0  0  0  0  0  0  0  0  0  0  0  0
   37.5290   20.9870    0.3270 C   0  0  0  0  0  0  0  0  0  0  0  0
   38.5610   21.5460    1.3230 C   0  0  0  0  0  0  0  0  0  0  0  0
   39.3560   13.1820    1.5070 H   0  0  0  0  0  0  0  0  0  0  0  0
   37.1190   13.5640    0.8650 H   0  0  0  0  0  0  0  0  0  0  0  0
   35.3750   15.1070    0.0850 H   0  0  0  0  0  0  0  0  0  0  0  0
   39.9520   16.8290    0.8460 H   0  0  0  0  0  0  0  0  0  0  0  0
   42.0540   13.5830    4.7670 H   0  0  0  0  0  0  0  0  0  0  0  0
   40.4460   13.0000    4.4210 H   0  0  0  0  0  0  0  0  0  0  0  0
   43.1230   10.0010    5.6820 H   0  0  0  0  0  0  0  0  0  0  0  0
   43.8380   11.5110    5.1800 H   0  0  0  0  0  0  0  0  0  0  0  0
   42.5280    9.4070    3.4270 H   0  0  0  0  0  0  0  0  0  0  0  0
   44.1720   10.0190    3.3390 H   0  0  0  0  0  0  0  0  0  0  0  0
   44.2110   11.2320   -0.8730 H   0  0  0  0  0  0  0  0  0  0  0  0
   44.5500   11.6070   -3.2710 H   0  0  0  0  0  0  0  0  0  0  0  0
   43.2430   13.3750   -4.4620 H   0  0  0  0  0  0  0  0  0  0  0  0
   41.6040   14.7390   -3.2080 H   0  0  0  0  0  0  0  0  0  0  0  0
   41.2330   14.3950   -0.8550 H   0  0  0  0  0  0  0  0  0  0  0  0
   41.2140   14.3850    8.2870 H   0  0  0  0  0  0  0  0  0  0  0  0
   43.3050   15.3630    9.4550 H   0  0  0  0  0  0  0  0  0  0  0  0
   45.4360   13.8080    9.1640 H   0  0  0  0  0  0  0  0  0  0  0  0
   35.8830   17.5290   -0.2490 H   0  0  0  0  0  0  0  0  0  0  0  0
   36.5600   21.4510    0.5140 H   0  0  0  0  0  0  0  0  0  0  0  0
   37.8030   21.2390   -0.6930 H   0  0  0  0  0  0  0  0  0  0  0  0
   38.4800   22.6250    1.4200 H   0  0  0  0  0  0  0  0  0  0  0  0
   38.4070   21.1360    2.3180 H   0  0  0  0  0  0  0  0  0  0  0  0
   39.5840   21.3230    1.0210 H   0  0  0  0  0  0  0  0  0  0  0  0
  1  5  1  0  0  0  0
  1  6  1  0  0  0  0
  1 38  1  0  0  0  0
  2 14  1  0  0  0  0
  2 15  1  0  0  0  0
  2 31  1  0  0  0  0
  3  4  1  0  0  0  0
  3 17  2  0  0  0  0
  4 12  1  0  0  0  0
  4 18  1  0  0  0  0
  5 12  1  0  0  0  0
  5 28  2  0  0  0  0
  6  7  1  0  0  0  0
  6 11  2  0  0  0  0
  7  8  2  0  0  0  0
  7 39  1  0  0  0  0
  8  9  1  0  0  0  0
  8 40  1  0  0  0  0
  9 10  2  0  0  0  0
  9 56  1  0  0  0  0
 10 11  1  0  0  0  0
 10 33  1  0  0  0  0
 11 41  1  0  0  0  0
 12 13  2  0  0  0  0
 13 14  1  0  0  0  0
 13 17  1  0  0  0  0
 14 42  1  0  0  0  0
 14 43  1  0  0  0  0
 15 16  1  0  0  0  0
 15 44  1  0  0  0  0
 15 45  1  0  0  0  0
 16 17  1  0  0  0  0
 16 46  1  0  0  0  0
 16 47  1  0  0  0  0
 18 19  1  0  0  0  0
 18 23  2  0  0  0  0
 19 20  2  0  0  0  0
 19 48  1  0  0  0  0
 20 21  1  0  0  0  0
 20 49  1  0  0  0  0
 21 22  2  0  0  0  0
 21 50  1  0  0  0  0
 22 23  1  0  0  0  0
 22 51  1  0  0  0  0
 23 52  1  0  0  0  0
 24 25  2  0  0  0  0
 24 31  1  0  0  0  0
 24 32  1  0  0  0  0
 25 26  1  0  0  0  0
 25 53  1  0  0  0  0
 26 27  2  0  0  0  0
 26 54  1  0  0  0  0
 27 32  1  0  0  0  0
 27 55  1  0  0  0  0
 29 31  2  0  0  0  0
 30 31  2  0  0  0  0
 33 34  2  0  0  0  0
 33 35  1  0  0  0  0
 35 36  1  0  0  0  0
 36 57  1  0  0  0  0
 36 37  1  0  0  0  0
 36 58  1  0  0  0  0
 37 59  1  0  0  0  0
 37 60  1  0  0  0  0
 37 61  1  0  0  0  0
M  END
$$$$
