../datasets/input/FXR_1/poses/FXR48/ligand.pdb
 OpenBabel03111910173D

 64 68  0  0  0  0  0  0  0  0999 V2000
   39.5280   14.1610    1.7040 N   0  0  0  0  0  0  0  0  0  0  0  0
   35.9480   18.6680   -1.3770 C   0  0  0  0  0  0  0  0  0  0  0  0
   41.6730   11.4740    5.2380 N   0  0  0  0  0  0  0  0  0  0  0  0
   42.8890   11.2420    1.2810 N   0  0  0  0  0  0  0  0  0  0  0  0
   42.3660   12.3920    0.7670 N   0  0  0  0  0  0  0  0  0  0  0  0
   40.8720   14.2800    1.6720 C   0  0  0  0  0  0  0  0  0  0  0  0
   38.6080   15.1910    1.3660 C   0  0  0  0  0  0  0  0  0  0  0  0
   37.4510   14.8980    0.6100 C   0  0  0  0  0  0  0  0  0  0  0  0
   36.5910   15.9410    0.2000 C   0  0  0  0  0  0  0  0  0  0  0  0
   36.8890   17.2840    0.5270 C   0  0  0  0  0  0  0  0  0  0  0  0
   38.0230   17.5650    1.3060 C   0  0  0  0  0  0  0  0  0  0  0  0
   38.8420   16.5220    1.7630 C   0  0  0  0  0  0  0  0  0  0  0  0
   35.9810   18.4350    0.1240 C   0  0  0  0  0  0  0  0  0  0  0  0
   36.9010   19.1650   -1.9750 O   0  0  0  0  0  0  0  0  0  0  0  0
   34.5910   18.2630   -3.3300 C   0  0  0  0  0  0  0  0  0  0  0  0
   34.7900   18.2570   -1.9240 O   0  0  0  0  0  0  0  0  0  0  0  0
   41.6280   13.0250    1.7710 C   0  0  0  0  0  0  0  0  0  0  0  0
   41.7830   12.3500    2.9450 C   0  0  0  0  0  0  0  0  0  0  0  0
   41.3850   12.6330    4.3690 C   0  0  0  0  0  0  0  0  0  0  0  0
   42.9380   10.7450    4.9690 C   0  0  0  0  0  0  0  0  0  0  0  0
   43.0240   10.2070    3.5280 C   0  0  0  0  0  0  0  0  0  0  0  0
   42.5710   11.2480    2.5640 C   0  0  0  0  0  0  0  0  0  0  0  0
   42.6230   12.7120   -0.6080 C   0  0  0  0  0  0  0  0  0  0  0  0
   43.5770   11.9490   -1.3280 C   0  0  0  0  0  0  0  0  0  0  0  0
   43.7980   12.1590   -2.7020 C   0  0  0  0  0  0  0  0  0  0  0  0
   43.0790   13.1570   -3.3800 C   0  0  0  0  0  0  0  0  0  0  0  0
   42.1610   13.9520   -2.6760 C   0  0  0  0  0  0  0  0  0  0  0  0
   41.9390   13.7380   -1.3050 C   0  0  0  0  0  0  0  0  0  0  0  0
   42.4020   12.6860    7.6400 C   0  0  0  0  0  0  0  0  0  0  0  0
   42.1590   13.9050    8.2130 C   0  0  0  0  0  0  0  0  0  0  0  0
   43.3200   14.4730    8.8160 C   0  0  0  0  0  0  0  0  0  0  0  0
   44.4380   13.6960    8.6650 C   0  0  0  0  0  0  0  0  0  0  0  0
   41.4750   15.3400    1.5310 O   0  0  0  0  0  0  0  0  0  0  0  0
   39.9150   12.3290    6.9150 O   0  0  0  0  0  0  0  0  0  0  0  0
   41.3520   10.2760    7.4910 O   0  0  0  0  0  0  0  0  0  0  0  0
   41.1930   11.6080    6.8900 S   0  0  0  0  0  0  0  0  0  0  0  0
   44.0780   12.2330    7.7950 S   0  0  0  0  0  0  0  0  0  0  0  0
   34.5980   19.6700   -3.9250 C   0  0  0  0  0  0  0  0  0  0  0  0
   39.1610   13.2250    1.8020 H   0  0  0  0  0  0  0  0  0  0  0  0
   37.2180   13.8820    0.3240 H   0  0  0  0  0  0  0  0  0  0  0  0
   35.7090   15.7050   -0.3740 H   0  0  0  0  0  0  0  0  0  0  0  0
   38.2580   18.5840    1.5740 H   0  0  0  0  0  0  0  0  0  0  0  0
   39.6690   16.7420    2.4130 H   0  0  0  0  0  0  0  0  0  0  0  0
   33.6170   17.8110   -3.5170 H   0  0  0  0  0  0  0  0  0  0  0  0
   41.9140   13.5040    4.7610 H   0  0  0  0  0  0  0  0  0  0  0  0
   40.3220   12.8680    4.4420 H   0  0  0  0  0  0  0  0  0  0  0  0
   43.0570    9.9200    5.6740 H   0  0  0  0  0  0  0  0  0  0  0  0
   43.7680   11.4210    5.1470 H   0  0  0  0  0  0  0  0  0  0  0  0
   42.4070    9.3190    3.4300 H   0  0  0  0  0  0  0  0  0  0  0  0
   44.0510    9.9190    3.3100 H   0  0  0  0  0  0  0  0  0  0  0  0
   44.1520   11.1800   -0.8350 H   0  0  0  0  0  0  0  0  0  0  0  0
   44.5250   11.5580   -3.2280 H   0  0  0  0  0  0  0  0  0  0  0  0
   43.2540   13.3420   -4.4290 H   0  0  0  0  0  0  0  0  0  0  0  0
   41.6310   14.7350   -3.1860 H   0  0  0  0  0  0  0  0  0  0  0  0
   41.2120   14.3760   -0.8370 H   0  0  0  0  0  0  0  0  0  0  0  0
   41.1910   14.3810    8.2450 H   0  0  0  0  0  0  0  0  0  0  0  0
   43.2920   15.4140    9.3400 H   0  0  0  0  0  0  0  0  0  0  0  0
   45.4430   13.8840    9.0290 H   0  0  0  0  0  0  0  0  0  0  0  0
   34.9690   18.2370    0.4670 H   0  0  0  0  0  0  0  0  0  0  0  0
   36.3130   19.3550    0.6080 H   0  0  0  0  0  0  0  0  0  0  0  0
   35.3270   17.6330   -3.8280 H   0  0  0  0  0  0  0  0  0  0  0  0
   34.1920   19.6490   -4.9350 H   0  0  0  0  0  0  0  0  0  0  0  0
   34.0020   20.3470   -3.3150 H   0  0  0  0  0  0  0  0  0  0  0  0
   35.6050   20.0800   -3.9850 H   0  0  0  0  0  0  0  0  0  0  0  0
  1  6  1  0  0  0  0
  1  7  1  0  0  0  0
  1 39  1  0  0  0  0
  2 13  1  0  0  0  0
  2 14  2  0  0  0  0
  2 16  1  0  0  0  0
  3 19  1  0  0  0  0
  3 20  1  0  0  0  0
  3 36  1  0  0  0  0
  4  5  1  0  0  0  0
  4 22  2  0  0  0  0
  5 17  1  0  0  0  0
  5 23  1  0  0  0  0
  6 17  1  0  0  0  0
  6 33  2  0  0  0  0
  7  8  1  0  0  0  0
  7 12  2  0  0  0  0
  8  9  2  0  0  0  0
  8 40  1  0  0  0  0
  9 10  1  0  0  0  0
  9 41  1  0  0  0  0
 10 11  2  0  0  0  0
 10 13  1  0  0  0  0
 11 12  1  0  0  0  0
 11 42  1  0  0  0  0
 12 43  1  0  0  0  0
 13 59  1  0  0  0  0
 13 60  1  0  0  0  0
 15 16  1  0  0  0  0
 15 38  1  0  0  0  0
 15 44  1  0  0  0  0
 15 61  1  0  0  0  0
 17 18  2  0  0  0  0
 18 19  1  0  0  0  0
 18 22  1  0  0  0  0
 19 45  1  0  0  0  0
 19 46  1  0  0  0  0
 20 21  1  0  0  0  0
 20 47  1  0  0  0  0
 20 48  1  0  0  0  0
 21 22  1  0  0  0  0
 21 49  1  0  0  0  0
 21 50  1  0  0  0  0
 23 24  1  0  0  0  0
 23 28  2  0  0  0  0
 24 25  2  0  0  0  0
 24 51  1  0  0  0  0
 25 26  1  0  0  0  0
 25 52  1  0  0  0  0
 26 27  2  0  0  0  0
 26 53  1  0  0  0  0
 27 28  1  0  0  0  0
 27 54  1  0  0  0  0
 28 55  1  0  0  0  0
 29 30  2  0  0  0  0
 29 36  1  0  0  0  0
 29 37  1  0  0  0  0
 30 31  1  0  0  0  0
 30 56  1  0  0  0  0
 31 32  2  0  0  0  0
 31 57  1  0  0  0  0
 32 37  1  0  0  0  0
 32 58  1  0  0  0  0
 34 36  2  0  0  0  0
 35 36  2  0  0  0  0
 38 62  1  0  0  0  0
 38 63  1  0  0  0  0
 38 64  1  0  0  0  0
M  END
$$$$
