../datasets/input/HSP90_3/poses/HSP90_10/ligand.pdb
 OpenBabel02211915403D

 29 32  0  0  0  0  0  0  0  0999 V2000
    2.0270   13.1090   24.1250 O   0  0  0  0  0  0  0  0  0  0  0  0
    2.6600   11.9950   23.6510 C   0  0  0  0  0  0  0  0  0  0  0  0
    4.0200   12.0830   23.2890 C   0  0  0  0  0  0  0  0  0  0  0  0
    4.7000   10.9480   22.8110 C   0  0  0  0  0  0  0  0  0  0  0  0
    4.0210    9.7210   22.6970 C   0  0  0  0  0  0  0  0  0  0  0  0
    2.6630    9.6340   23.0580 C   0  0  0  0  0  0  0  0  0  0  0  0
    1.9660   10.7660   23.5330 C   0  0  0  0  0  0  0  0  0  0  0  0
    0.5440   10.6430   23.9020 C   0  0  0  0  0  0  0  0  0  0  0  0
    0.1950   10.0330   25.1240 C   0  0  0  0  0  0  0  0  0  0  0  0
   -1.1540    9.8990   25.5230 C   0  0  0  0  0  0  0  0  0  0  0  0
   -1.4580    9.2900   26.7760 N   0  0  0  0  0  0  0  0  0  0  0  0
   -2.4450    9.6230   27.6420 C   0  0  0  0  0  0  0  0  0  0  0  0
   -3.1430   10.6350   27.6110 O   0  0  0  0  0  0  0  0  0  0  0  0
   -2.5220    8.6490   28.5690 N   0  0  0  0  0  0  0  0  0  0  0  0
   -1.5840    7.6540   28.2910 C   0  0  0  0  0  0  0  0  0  0  0  0
   -1.2960    6.4560   28.9620 C   0  0  0  0  0  0  0  0  0  0  0  0
   -0.2650    5.6500   28.4250 C   0  0  0  0  0  0  0  0  0  0  0  0
    0.4400    6.0530   27.2610 C   0  0  0  0  0  0  0  0  0  0  0  0
    0.1270    7.2680   26.6060 C   0  0  0  0  0  0  0  0  0  0  0  0
   -0.9100    8.0470   27.1530 C   0  0  0  0  0  0  0  0  0  0  0  0
   -2.1750   10.3800   24.6670 C   0  0  0  0  0  0  0  0  0  0  0  0
   -3.4960   10.2890   25.0040 O   0  0  0  0  0  0  0  0  0  0  0  0
   -1.8350   10.9870   23.4430 C   0  0  0  0  0  0  0  0  0  0  0  0
   -0.4870   11.1190   23.0590 C   0  0  0  0  0  0  0  0  0  0  0  0
   -0.1920   11.7040   21.8600 O   0  0  0  0  0  0  0  0  0  0  0  0
    1.1590   12.9320   24.4540 H   0  0  0  0  0  0  0  0  0  0  0  0
   -3.1610    8.6160   29.3500 H   0  0  0  0  0  0  0  0  0  0  0  0
   -4.0560   10.7800   24.4210 H   0  0  0  0  0  0  0  0  0  0  0  0
   -0.9560   12.0170   21.4000 H   0  0  0  0  0  0  0  0  0  0  0  0
  1 26  1  0  0  0  0
  2  1  1  0  0  0  0
  3  2  2  0  0  0  0
  4  3  1  0  0  0  0
  5  4  2  0  0  0  0
  5  6  1  0  0  0  0
  6  7  2  0  0  0  0
  7  2  1  0  0  0  0
  7  8  1  0  0  0  0
  8  9  2  0  0  0  0
  9 10  1  0  0  0  0
 10 11  1  0  0  0  0
 11 20  1  0  0  0  0
 11 12  1  0  0  0  0
 12 14  1  0  0  0  0
 13 12  2  0  0  0  0
 14 27  1  0  0  0  0
 15 14  1  0  0  0  0
 15 16  2  0  0  0  0
 17 16  1  0  0  0  0
 18 17  2  0  0  0  0
 19 20  2  0  0  0  0
 19 18  1  0  0  0  0
 20 15  1  0  0  0  0
 21 22  1  0  0  0  0
 21 10  2  0  0  0  0
 23 21  1  0  0  0  0
 24 23  2  0  0  0  0
 24  8  1  0  0  0  0
 25 24  1  0  0  0  0
 28 22  1  0  0  0  0
 29 25  1  0  0  0  0
M  END
