../datasets/input/HSP90_2/poses/HSP90_106/ligand.pdb
 OpenBabel03111910143D

 20 22  0  0  0  0  0  0  0  0999 V2000
    2.0650    9.6910   24.6610 C   0  0  0  0  0  0  0  0  0  0  0  0
    3.4130    9.8440   24.2830 C   0  0  0  0  0  0  0  0  0  0  0  0
    1.1500   10.7590   24.5370 C   0  0  0  0  0  0  0  0  0  0  0  0
    2.9600   12.1460   23.6350 C   0  0  0  0  0  0  0  0  0  0  0  0
    3.8620   11.0750   23.7700 C   0  0  0  0  0  0  0  0  0  0  0  0
    1.6110   11.9920   24.0130 C   0  0  0  0  0  0  0  0  0  0  0  0
    5.5110   11.2670   23.3030 C   0  0  0  0  0  0  0  0  0  0  0  0
    0.5350   13.3290   23.8060 C   0  0  0  0  0  0  0  0  0  0  0  0
   -2.9550   10.2630   25.5850 N   0  0  0  0  0  0  0  0  0  0  0  0
   -0.2500   10.5610   24.9440 C   0  0  0  0  0  0  0  0  0  0  0  0
   -1.9820    9.8840   26.4190 N   0  0  0  0  0  0  0  0  0  0  0  0
   -2.2040    9.3280   27.6370 N   0  0  0  0  0  0  0  0  0  0  0  0
   -4.4330   11.1190   23.7000 H   0  0  0  0  0  0  0  0  0  0  0  0
   -3.1800   11.6160   22.6250 H   0  0  0  0  0  0  0  0  0  0  0  0
   -0.6050    9.9920   26.1940 C   0  0  0  0  0  0  0  0  0  0  0  0
   -1.1970   10.9670   24.0650 N   0  0  0  0  0  0  0  0  0  0  0  0
    0.0420    9.5120   27.2500 N   0  0  0  0  0  0  0  0  0  0  0  0
   -2.4880   10.7950   24.4300 C   0  0  0  0  0  0  0  0  0  0  0  0
   -0.9690    9.1290   28.0810 C   0  0  0  0  0  0  0  0  0  0  0  0
   -3.4450   11.2130   23.5110 N   0  0  0  0  0  0  0  0  0  0  0  0
  1  2  2  0  0  0  0
  1  3  1  0  0  0  0
  2  5  1  0  0  0  0
  3  6  2  0  0  0  0
  3 10  1  0  0  0  0
  4  5  2  0  0  0  0
  4  6  1  0  0  0  0
  5  7  1  0  0  0  0
  6  8  1  0  0  0  0
  9 18  2  0  0  0  0
  9 11  1  0  0  0  0
 10 16  2  0  0  0  0
 10 15  1  0  0  0  0
 11 15  1  0  0  0  0
 11 12  1  0  0  0  0
 12 19  2  0  0  0  0
 13 20  1  0  0  0  0
 14 20  1  0  0  0  0
 15 17  2  0  0  0  0
 16 18  1  0  0  0  0
 17 19  1  0  0  0  0
 18 20  1  0  0  0  0
M  END
$$$$
