../datasets/input/HSP90_1/poses/HSP90_80/ligand.pdb
 OpenBabel03111910143D

 22 24  0  0  0  0  0  0  0  0999 V2000
   -3.5020   12.1830   23.7000 N   0  0  0  0  0  0  0  0  0  0  0  0
   -1.2330   12.2210   24.0630 N   0  0  0  0  0  0  0  0  0  0  0  0
   -2.5050   10.2350   24.3990 N   0  0  0  0  0  0  0  0  0  0  0  0
   -2.3630   11.5170   24.0700 C   0  0  0  0  0  0  0  0  0  0  0  0
   -0.1000   11.5780   24.4280 C   0  0  0  0  0  0  0  0  0  0  0  0
   -0.1330   10.2150   24.7960 C   0  0  0  0  0  0  0  0  0  0  0  0
   -1.3860    9.5670   24.7580 C   0  0  0  0  0  0  0  0  0  0  0  0
   -1.5500    8.1540   25.1370 C   0  0  0  0  0  0  0  0  0  0  0  0
   -1.3680    7.1550   24.1550 C   0  0  0  0  0  0  0  0  0  0  0  0
   -1.5120    5.7910   24.4720 C   0  0  0  0  0  0  0  0  0  0  0  0
   -1.8450    5.4070   25.7840 C   0  0  0  0  0  0  0  0  0  0  0  0
   -2.0380    6.3910   26.7710 C   0  0  0  0  0  0  0  0  0  0  0  0
   -1.8950    7.7560   26.4540 C   0  0  0  0  0  0  0  0  0  0  0  0
    1.1400   12.3770   24.4170 C   0  0  0  0  0  0  0  0  0  0  0  0
    1.2190   13.7370   24.2950 C   0  0  0  0  0  0  0  0  0  0  0  0
    3.2710   13.0090   24.4670 C   0  0  0  0  0  0  0  0  0  0  0  0
    2.4770   11.8990   24.5290 C   0  0  0  0  0  0  0  0  0  0  0  0
    2.5200   14.1390   24.3240 O   0  0  0  0  0  0  0  0  0  0  0  0
   -2.0230    3.7370   26.1780 Cl  0  0  0  0  0  0  0  0  0  0  0  0
   -2.1740    8.9240   27.6990 Cl  0  0  0  0  0  0  0  0  0  0  0  0
   -3.4480   13.1400   23.3860 H   0  0  0  0  0  0  0  0  0  0  0  0
   -4.3780   11.6870   23.6320 H   0  0  0  0  0  0  0  0  0  0  0  0
  1 21  1  0  0  0  0
  1 22  1  0  0  0  0
  1  4  1  0  0  0  0
  2  4  2  0  0  0  0
  2  5  1  0  0  0  0
  3  4  1  0  0  0  0
  3  7  2  0  0  0  0
  5 14  1  0  0  0  0
  5  6  2  0  0  0  0
  6  7  1  0  0  0  0
  7  8  1  0  0  0  0
  8  9  2  0  0  0  0
  8 13  1  0  0  0  0
  9 10  1  0  0  0  0
 10 11  2  0  0  0  0
 11 19  1  0  0  0  0
 11 12  1  0  0  0  0
 12 13  2  0  0  0  0
 13 20  1  0  0  0  0
 14 15  2  0  0  0  0
 14 17  1  0  0  0  0
 15 18  1  0  0  0  0
 16 18  1  0  0  0  0
 16 17  2  0  0  0  0
M  END
$$$$
