../datasets/input/FXR_1/poses/FXR101/ligand.pdb
 OpenBabel03111910173D

 54 58  0  0  0  0  0  0  0  0999 V2000
   39.4500   14.6460    1.0500 N   0  0  0  0  0  0  0  0  0  0  0  0
   34.5240   18.4230   -0.8360 O   0  5  0  0  0  0  0  0  0  0  0  0
   41.3810   12.0830    5.1170 N   0  0  0  0  0  0  0  0  0  0  0  0
   42.5760   11.5360    1.2030 N   0  0  0  0  0  0  0  0  0  0  0  0
   42.1250   12.6820    0.6240 N   0  0  0  0  0  0  0  0  0  0  0  0
   40.7500   14.7120    1.3930 C   0  0  0  0  0  0  0  0  0  0  0  0
   38.5570   15.6880    0.6570 C   0  0  0  0  0  0  0  0  0  0  0  0
   37.2190   15.3380    0.3660 C   0  0  0  0  0  0  0  0  0  0  0  0
   36.2840   16.3280   -0.0100 C   0  0  0  0  0  0  0  0  0  0  0  0
   36.6550   17.6900   -0.0670 C   0  0  0  0  0  0  0  0  0  0  0  0
   37.9960   18.0360    0.1990 C   0  0  0  0  0  0  0  0  0  0  0  0
   38.9390   17.0450    0.5260 C   0  0  0  0  0  0  0  0  0  0  0  0
   35.6480   18.7600   -0.3940 C   0  0  0  0  0  0  0  0  0  0  0  0
   41.4300   13.4240    1.5800 C   0  0  0  0  0  0  0  0  0  0  0  0
   41.5810   12.8350    2.8000 C   0  0  0  0  0  0  0  0  0  0  0  0
   41.2230   13.2350    4.2080 C   0  0  0  0  0  0  0  0  0  0  0  0
   42.5790   11.2350    4.9090 C   0  0  0  0  0  0  0  0  0  0  0  0
   42.6310   10.6220    3.4990 C   0  0  0  0  0  0  0  0  0  0  0  0
   42.2700   11.6480    2.4830 C   0  0  0  0  0  0  0  0  0  0  0  0
   42.4320   12.9210   -0.7490 C   0  0  0  0  0  0  0  0  0  0  0  0
   43.4660   12.1710   -1.3630 C   0  0  0  0  0  0  0  0  0  0  0  0
   43.7680   12.3290   -2.7260 C   0  0  0  0  0  0  0  0  0  0  0  0
   43.0540   13.2650   -3.4910 C   0  0  0  0  0  0  0  0  0  0  0  0
   42.0410   14.0290   -2.8950 C   0  0  0  0  0  0  0  0  0  0  0  0
   41.7320   13.8660   -1.5370 C   0  0  0  0  0  0  0  0  0  0  0  0
   42.0800   13.0140    7.6820 C   0  0  0  0  0  0  0  0  0  0  0  0
   41.9580   14.1660    8.4130 C   0  0  0  0  0  0  0  0  0  0  0  0
   43.1480   14.5040    9.1250 C   0  0  0  0  0  0  0  0  0  0  0  0
   44.1740   13.6250    8.9030 C   0  0  0  0  0  0  0  0  0  0  0  0
   41.3680   15.7440    1.5920 O   0  0  0  0  0  0  0  0  0  0  0  0
   35.9170   19.9560   -0.1640 O   0  0  0  0  0  0  0  0  0  0  0  0
   39.6510   13.1520    6.7080 O   0  0  0  0  0  0  0  0  0  0  0  0
   40.6450   10.8490    7.2350 O   0  0  0  0  0  0  0  0  0  0  0  0
   40.7870   12.2220    6.7320 S   0  0  0  0  0  0  0  0  0  0  0  0
   43.6830   12.3400    7.8350 S   0  0  0  0  0  0  0  0  0  0  0  0
   39.0670   13.7130    1.0570 H   0  0  0  0  0  0  0  0  0  0  0  0
   36.8890   14.3110    0.4260 H   0  0  0  0  0  0  0  0  0  0  0  0
   35.2650   16.0460   -0.2350 H   0  0  0  0  0  0  0  0  0  0  0  0
   38.3060   19.0700    0.1420 H   0  0  0  0  0  0  0  0  0  0  0  0
   39.9520   17.3780    0.6710 H   0  0  0  0  0  0  0  0  0  0  0  0
   41.8520   14.0530    4.5620 H   0  0  0  0  0  0  0  0  0  0  0  0
   40.1940   13.5940    4.2650 H   0  0  0  0  0  0  0  0  0  0  0  0
   42.6170   10.4400    5.6540 H   0  0  0  0  0  0  0  0  0  0  0  0
   43.4580   11.8520    5.0700 H   0  0  0  0  0  0  0  0  0  0  0  0
   41.9320    9.7930    3.4400 H   0  0  0  0  0  0  0  0  0  0  0  0
   43.6270   10.2280    3.3030 H   0  0  0  0  0  0  0  0  0  0  0  0
   44.0410   11.4580   -0.7920 H   0  0  0  0  0  0  0  0  0  0  0  0
   44.5570   11.7420   -3.1740 H   0  0  0  0  0  0  0  0  0  0  0  0
   43.2940   13.4180   -4.5300 H   0  0  0  0  0  0  0  0  0  0  0  0
   41.4960   14.7430   -3.4810 H   0  0  0  0  0  0  0  0  0  0  0  0
   40.9360   14.4740   -1.1480 H   0  0  0  0  0  0  0  0  0  0  0  0
   41.0550   14.7530    8.4760 H   0  0  0  0  0  0  0  0  0  0  0  0
   43.2090   15.3630    9.7770 H   0  0  0  0  0  0  0  0  0  0  0  0
   45.1740   13.6510    9.3220 H   0  0  0  0  0  0  0  0  0  0  0  0
  1  6  1  0  0  0  0
  1  7  1  0  0  0  0
  1 36  1  0  0  0  0
  2 13  1  0  0  0  0
  3 16  1  0  0  0  0
  3 17  1  0  0  0  0
  3 34  1  0  0  0  0
  4  5  1  0  0  0  0
  4 19  2  0  0  0  0
  5 14  1  0  0  0  0
  5 20  1  0  0  0  0
  6 14  1  0  0  0  0
  6 30  2  0  0  0  0
  7  8  1  0  0  0  0
  7 12  2  0  0  0  0
  8  9  2  0  0  0  0
  8 37  1  0  0  0  0
  9 10  1  0  0  0  0
  9 38  1  0  0  0  0
 10 11  2  0  0  0  0
 10 13  1  0  0  0  0
 11 12  1  0  0  0  0
 11 39  1  0  0  0  0
 12 40  1  0  0  0  0
 13 31  2  0  0  0  0
 14 15  2  0  0  0  0
 15 16  1  0  0  0  0
 15 19  1  0  0  0  0
 16 41  1  0  0  0  0
 16 42  1  0  0  0  0
 17 18  1  0  0  0  0
 17 43  1  0  0  0  0
 17 44  1  0  0  0  0
 18 19  1  0  0  0  0
 18 45  1  0  0  0  0
 18 46  1  0  0  0  0
 20 21  1  0  0  0  0
 20 25  2  0  0  0  0
 21 22  2  0  0  0  0
 21 47  1  0  0  0  0
 22 23  1  0  0  0  0
 22 48  1  0  0  0  0
 23 24  2  0  0  0  0
 23 49  1  0  0  0  0
 24 25  1  0  0  0  0
 24 50  1  0  0  0  0
 25 51  1  0  0  0  0
 26 27  2  0  0  0  0
 26 34  1  0  0  0  0
 26 35  1  0  0  0  0
 27 28  1  0  0  0  0
 27 52  1  0  0  0  0
 28 29  2  0  0  0  0
 28 53  1  0  0  0  0
 29 35  1  0  0  0  0
 29 54  1  0  0  0  0
 32 34  2  0  0  0  0
 33 34  2  0  0  0  0
M  CHG  1   2  -1
M  END
$$$$
