../datasets/input/FXR_1/poses/INT01/ligand.pdb
 OpenBabel03111910173D

 54 58  0  0  0  0  0  0  0  0999 V2000
   39.3680   14.3630    1.7340 N   0  0  0  0  0  0  0  0  0  0  0  0
   41.6590   11.6410    5.2790 N   0  0  0  0  0  0  0  0  0  0  0  0
   42.7790   11.5170    1.3040 N   0  0  0  0  0  0  0  0  0  0  0  0
   42.2050   12.6500    0.8170 N   0  0  0  0  0  0  0  0  0  0  0  0
   40.7090   14.5090    1.7700 C   0  0  0  0  0  0  0  0  0  0  0  0
   38.4360   15.3440    1.2790 C   0  0  0  0  0  0  0  0  0  0  0  0
   37.3180   14.9380    0.5190 C   0  0  0  0  0  0  0  0  0  0  0  0
   36.4440   15.8990   -0.0320 C   0  0  0  0  0  0  0  0  0  0  0  0
   36.6600   17.2800    0.1780 C   0  0  0  0  0  0  0  0  0  0  0  0
   37.7440   17.6850    0.9830 C   0  0  0  0  0  0  0  0  0  0  0  0
   38.6030   16.7210    1.5450 C   0  0  0  0  0  0  0  0  0  0  0  0
   35.7450   18.2870   -0.4170 C   0  0  0  0  0  0  0  0  0  0  0  0
   41.4930   13.2670    1.8510 C   0  0  0  0  0  0  0  0  0  0  0  0
   41.7060   12.5900    3.0160 C   0  0  0  0  0  0  0  0  0  0  0  0
   41.3450   12.8300    4.4600 C   0  0  0  0  0  0  0  0  0  0  0  0
   42.9530   10.9750    4.9790 C   0  0  0  0  0  0  0  0  0  0  0  0
   43.0320   10.4710    3.5270 C   0  0  0  0  0  0  0  0  0  0  0  0
   42.5140   11.5130    2.5970 C   0  0  0  0  0  0  0  0  0  0  0  0
   42.3980   12.9670   -0.5680 C   0  0  0  0  0  0  0  0  0  0  0  0
   43.2890   12.1760   -1.3370 C   0  0  0  0  0  0  0  0  0  0  0  0
   43.4460   12.3810   -2.7190 C   0  0  0  0  0  0  0  0  0  0  0  0
   42.7340   13.4100   -3.3570 C   0  0  0  0  0  0  0  0  0  0  0  0
   41.8790   14.2320   -2.6060 C   0  0  0  0  0  0  0  0  0  0  0  0
   41.7110   14.0170   -1.2280 C   0  0  0  0  0  0  0  0  0  0  0  0
   42.3470   12.7300    7.7460 C   0  0  0  0  0  0  0  0  0  0  0  0
   42.0670   13.9200    8.3620 C   0  0  0  0  0  0  0  0  0  0  0  0
   43.2080   14.5040    8.9870 C   0  0  0  0  0  0  0  0  0  0  0  0
   44.3520   13.7690    8.8110 C   0  0  0  0  0  0  0  0  0  0  0  0
   41.2910   15.5850    1.6930 O   0  0  0  0  0  0  0  0  0  0  0  0
   35.8030   19.4990   -0.2080 O   0  0  0  0  0  0  0  0  0  0  0  0
   39.8700   12.3340    6.9920 O   0  0  0  0  0  0  0  0  0  0  0  0
   41.3690   10.2980    7.4470 O   0  0  0  0  0  0  0  0  0  0  0  0
   41.1730   11.6600    6.9330 S   0  0  0  0  0  0  0  0  0  0  0  0
   44.0360   12.3190    7.8990 S   0  0  0  0  0  0  0  0  0  0  0  0
   39.0390   13.4110    1.8130 H   0  0  0  0  0  0  0  0  0  0  0  0
   37.1300   13.8910    0.3280 H   0  0  0  0  0  0  0  0  0  0  0  0
   35.6080   15.5620   -0.6240 H   0  0  0  0  0  0  0  0  0  0  0  0
   37.9130   18.7330    1.1920 H   0  0  0  0  0  0  0  0  0  0  0  0
   39.3990   17.0520    2.1840 H   0  0  0  0  0  0  0  0  0  0  0  0
   41.8880   13.6840    4.8680 H   0  0  0  0  0  0  0  0  0  0  0  0
   40.2850   13.0630    4.5690 H   0  0  0  0  0  0  0  0  0  0  0  0
   43.1260   10.1420    5.6620 H   0  0  0  0  0  0  0  0  0  0  0  0
   43.7520   11.6890    5.1580 H   0  0  0  0  0  0  0  0  0  0  0  0
   42.4430    9.5640    3.4240 H   0  0  0  0  0  0  0  0  0  0  0  0
   44.0620   10.2170    3.2760 H   0  0  0  0  0  0  0  0  0  0  0  0
   43.8690   11.3900   -0.8770 H   0  0  0  0  0  0  0  0  0  0  0  0
   44.1270   11.7570   -3.2790 H   0  0  0  0  0  0  0  0  0  0  0  0
   42.8670   13.5890   -4.4120 H   0  0  0  0  0  0  0  0  0  0  0  0
   41.3530   15.0400   -3.0820 H   0  0  0  0  0  0  0  0  0  0  0  0
   41.0320   14.6800   -0.7250 H   0  0  0  0  0  0  0  0  0  0  0  0
   41.0850   14.3630    8.4050 H   0  0  0  0  0  0  0  0  0  0  0  0
   43.1520   15.4260    9.5450 H   0  0  0  0  0  0  0  0  0  0  0  0
   45.3490   13.9810    9.1850 H   0  0  0  0  0  0  0  0  0  0  0  0
   34.9830   17.8630   -1.0710 H   0  0  0  0  0  0  0  0  0  0  0  0
  1  5  1  0  0  0  0
  1  6  1  0  0  0  0
  1 35  1  0  0  0  0
  2 15  1  0  0  0  0
  2 16  1  0  0  0  0
  2 33  1  0  0  0  0
  3  4  1  0  0  0  0
  3 18  2  0  0  0  0
  4 13  1  0  0  0  0
  4 19  1  0  0  0  0
  5 13  1  0  0  0  0
  5 29  2  0  0  0  0
  6  7  2  0  0  0  0
  6 11  1  0  0  0  0
  7  8  1  0  0  0  0
  7 36  1  0  0  0  0
  8  9  2  0  0  0  0
  8 37  1  0  0  0  0
  9 10  1  0  0  0  0
  9 12  1  0  0  0  0
 10 11  2  0  0  0  0
 10 38  1  0  0  0  0
 11 39  1  0  0  0  0
 12 30  2  0  0  0  0
 12 54  1  0  0  0  0
 13 14  2  0  0  0  0
 14 15  1  0  0  0  0
 14 18  1  0  0  0  0
 15 40  1  0  0  0  0
 15 41  1  0  0  0  0
 16 17  1  0  0  0  0
 16 42  1  0  0  0  0
 16 43  1  0  0  0  0
 17 18  1  0  0  0  0
 17 44  1  0  0  0  0
 17 45  1  0  0  0  0
 19 20  2  0  0  0  0
 19 24  1  0  0  0  0
 20 21  1  0  0  0  0
 20 46  1  0  0  0  0
 21 22  2  0  0  0  0
 21 47  1  0  0  0  0
 22 23  1  0  0  0  0
 22 48  1  0  0  0  0
 23 24  2  0  0  0  0
 23 49  1  0  0  0  0
 24 50  1  0  0  0  0
 25 26  2  0  0  0  0
 25 33  1  0  0  0  0
 25 34  1  0  0  0  0
 26 27  1  0  0  0  0
 26 51  1  0  0  0  0
 27 28  2  0  0  0  0
 27 52  1  0  0  0  0
 28 34  1  0  0  0  0
 28 53  1  0  0  0  0
 31 33  2  0  0  0  0
 32 33  2  0  0  0  0
M  END
$$$$
