../datasets/input/FXR_1/poses/FXR91/ligand.pdb
 OpenBabel03111910173D

 52 56  0  0  0  0  0  0  0  0999 V2000
   39.4140   14.2500    1.7180 N   0  0  0  0  0  0  0  0  0  0  0  0
   41.6900   11.6640    5.2710 N   0  0  0  0  0  0  0  0  0  0  0  0
   42.8730   11.5310    1.3160 N   0  0  0  0  0  0  0  0  0  0  0  0
   42.3050   12.6600    0.8110 N   0  0  0  0  0  0  0  0  0  0  0  0
   40.7380   14.4860    1.7160 C   0  0  0  0  0  0  0  0  0  0  0  0
   38.3830   15.0930    1.2110 C   0  0  0  0  0  0  0  0  0  0  0  0
   37.2300   14.4720    0.6840 C   0  0  0  0  0  0  0  0  0  0  0  0
   36.1890   15.2390    0.1300 C   0  0  0  0  0  0  0  0  0  0  0  0
   36.2890   16.6420    0.0830 C   0  0  0  0  0  0  0  0  0  0  0  0
   37.4270   17.2750    0.6200 C   0  0  0  0  0  0  0  0  0  0  0  0
   38.4590   16.5070    1.1930 C   0  0  0  0  0  0  0  0  0  0  0  0
   41.5800   13.2850    1.8320 C   0  0  0  0  0  0  0  0  0  0  0  0
   41.7760   12.6120    3.0040 C   0  0  0  0  0  0  0  0  0  0  0  0
   41.3820   12.8510    4.4410 C   0  0  0  0  0  0  0  0  0  0  0  0
   42.9780   10.9850    4.9860 C   0  0  0  0  0  0  0  0  0  0  0  0
   43.0640   10.4770    3.5370 C   0  0  0  0  0  0  0  0  0  0  0  0
   42.5830   11.5290    2.6020 C   0  0  0  0  0  0  0  0  0  0  0  0
   42.5010   12.9570   -0.5770 C   0  0  0  0  0  0  0  0  0  0  0  0
   43.3940   12.1550   -1.3340 C   0  0  0  0  0  0  0  0  0  0  0  0
   43.5500   12.3400   -2.7190 C   0  0  0  0  0  0  0  0  0  0  0  0
   42.8360   13.3570   -3.3730 C   0  0  0  0  0  0  0  0  0  0  0  0
   41.9810   14.1900   -2.6350 C   0  0  0  0  0  0  0  0  0  0  0  0
   41.8150   13.9970   -1.2540 C   0  0  0  0  0  0  0  0  0  0  0  0
   42.3730   12.7590    7.7410 C   0  0  0  0  0  0  0  0  0  0  0  0
   42.0960   13.9410    8.3730 C   0  0  0  0  0  0  0  0  0  0  0  0
   43.2380   14.5090    9.0120 C   0  0  0  0  0  0  0  0  0  0  0  0
   44.3800   13.7760    8.8240 C   0  0  0  0  0  0  0  0  0  0  0  0
   41.2510   15.5900    1.5740 O   0  0  0  0  0  0  0  0  0  0  0  0
   39.8950   12.3780    6.9700 O   0  0  0  0  0  0  0  0  0  0  0  0
   41.3790   10.3320    7.4390 O   0  0  0  0  0  0  0  0  0  0  0  0
   41.1950   11.6960    6.9210 S   0  0  0  0  0  0  0  0  0  0  0  0
   44.0620   12.3430    7.8870 S   0  0  0  0  0  0  0  0  0  0  0  0
   39.1670   13.2830    1.8710 H   0  0  0  0  0  0  0  0  0  0  0  0
   35.4920   17.2350   -0.3440 H   0  0  0  0  0  0  0  0  0  0  0  0
   37.1350   13.3950    0.6850 H   0  0  0  0  0  0  0  0  0  0  0  0
   35.3120   14.7430   -0.2510 H   0  0  0  0  0  0  0  0  0  0  0  0
   37.5060   18.3520    0.6110 H   0  0  0  0  0  0  0  0  0  0  0  0
   39.3010   17.0300    1.6120 H   0  0  0  0  0  0  0  0  0  0  0  0
   41.9050   13.7130    4.8580 H   0  0  0  0  0  0  0  0  0  0  0  0
   40.3170   13.0710    4.5270 H   0  0  0  0  0  0  0  0  0  0  0  0
   43.1330   10.1510    5.6730 H   0  0  0  0  0  0  0  0  0  0  0  0
   43.7820   11.6910    5.1710 H   0  0  0  0  0  0  0  0  0  0  0  0
   42.4510    9.5870    3.4270 H   0  0  0  0  0  0  0  0  0  0  0  0
   44.0910   10.1990    3.3020 H   0  0  0  0  0  0  0  0  0  0  0  0
   43.9730   11.3750   -0.8610 H   0  0  0  0  0  0  0  0  0  0  0  0
   44.2300   11.7080   -3.2710 H   0  0  0  0  0  0  0  0  0  0  0  0
   42.9690   13.5230   -4.4310 H   0  0  0  0  0  0  0  0  0  0  0  0
   41.4540   14.9890   -3.1230 H   0  0  0  0  0  0  0  0  0  0  0  0
   41.1350   14.6690   -0.7640 H   0  0  0  0  0  0  0  0  0  0  0  0
   41.1190   14.3910    8.4220 H   0  0  0  0  0  0  0  0  0  0  0  0
   43.1790   15.4180    9.5890 H   0  0  0  0  0  0  0  0  0  0  0  0
   45.3760   13.9800    9.2040 H   0  0  0  0  0  0  0  0  0  0  0  0
  1  5  1  0  0  0  0
  1  6  1  0  0  0  0
  1 33  1  0  0  0  0
  2 14  1  0  0  0  0
  2 15  1  0  0  0  0
  2 31  1  0  0  0  0
  3  4  1  0  0  0  0
  3 17  2  0  0  0  0
  4 12  1  0  0  0  0
  4 18  1  0  0  0  0
  5 12  1  0  0  0  0
  5 28  2  0  0  0  0
  6  7  1  0  0  0  0
  6 11  2  0  0  0  0
  7  8  2  0  0  0  0
  7 35  1  0  0  0  0
  8  9  1  0  0  0  0
  8 36  1  0  0  0  0
  9 10  2  0  0  0  0
  9 34  1  0  0  0  0
 10 11  1  0  0  0  0
 10 37  1  0  0  0  0
 11 38  1  0  0  0  0
 12 13  2  0  0  0  0
 13 14  1  0  0  0  0
 13 17  1  0  0  0  0
 14 39  1  0  0  0  0
 14 40  1  0  0  0  0
 15 16  1  0  0  0  0
 15 41  1  0  0  0  0
 15 42  1  0  0  0  0
 16 17  1  0  0  0  0
 16 43  1  0  0  0  0
 16 44  1  0  0  0  0
 18 19  1  0  0  0  0
 18 23  2  0  0  0  0
 19 20  2  0  0  0  0
 19 45  1  0  0  0  0
 20 21  1  0  0  0  0
 20 46  1  0  0  0  0
 21 22  2  0  0  0  0
 21 47  1  0  0  0  0
 22 23  1  0  0  0  0
 22 48  1  0  0  0  0
 23 49  1  0  0  0  0
 24 25  2  0  0  0  0
 24 31  1  0  0  0  0
 24 32  1  0  0  0  0
 25 26  1  0  0  0  0
 25 50  1  0  0  0  0
 26 27  2  0  0  0  0
 26 51  1  0  0  0  0
 27 32  1  0  0  0  0
 27 52  1  0  0  0  0
 29 31  2  0  0  0  0
 30 31  2  0  0  0  0
M  END
$$$$
