../datasets/input/FXR_2/poses/INT01/ligand.pdb
 OpenBabel03111910173D

 52 56  0  0  0  0  0  0  0  0999 V2000
   40.5160   14.5810    1.5440 N   0  0  0  0  0  0  0  0  0  0  0  0
   44.4270   11.7540    2.8610 N   0  0  0  0  0  0  0  0  0  0  0  0
   36.3580   17.5790    0.2790 C   0  0  0  0  0  0  0  0  0  0  0  0
   37.7280   17.8870    0.2290 C   0  0  0  0  0  0  0  0  0  0  0  0
   38.6690   17.0540    0.8700 C   0  0  0  0  0  0  0  0  0  0  0  0
   38.2490   15.8490    1.4720 C   0  0  0  0  0  0  0  0  0  0  0  0
   39.2180   14.9010    2.1600 C   0  0  0  0  0  0  0  0  0  0  0  0
   41.4870   13.9890    2.2640 C   0  0  0  0  0  0  0  0  0  0  0  0
   42.6970   13.6140    1.3810 C   0  0  0  0  0  0  0  0  0  0  0  0
   42.7350   12.1040    1.1030 C   0  0  0  0  0  0  0  0  0  0  0  0
   43.1490   11.2840    2.3200 C   0  0  0  0  0  0  0  0  0  0  0  0
   44.5120   13.2000    3.1610 C   0  0  0  0  0  0  0  0  0  0  0  0
   44.0600   14.0590    1.9550 C   0  0  0  0  0  0  0  0  0  0  0  0
   42.2790   14.3150    0.1150 C   0  0  0  0  0  0  0  0  0  0  0  0
   43.0130   14.4220   -1.0790 C   0  0  0  0  0  0  0  0  0  0  0  0
   42.3610   14.9320   -2.2180 C   0  0  0  0  0  0  0  0  0  0  0  0
   40.9970   15.2900   -2.1550 C   0  0  0  0  0  0  0  0  0  0  0  0
   40.2760   15.1830   -0.9470 C   0  0  0  0  0  0  0  0  0  0  0  0
   40.9560   14.7400    0.2050 C   0  0  0  0  0  0  0  0  0  0  0  0
   36.8780   15.5280    1.4920 C   0  0  0  0  0  0  0  0  0  0  0  0
   35.9390   16.4000    0.9230 C   0  0  0  0  0  0  0  0  0  0  0  0
   41.4570   13.7940    3.4810 O   0  0  0  0  0  0  0  0  0  0  0  0
   45.4890    9.4060    3.0450 O   0  0  0  0  0  0  0  0  0  0  0  0
   46.4260   11.3210    4.4410 O   0  0  0  0  0  0  0  0  0  0  0  0
   43.3210   15.1260   -3.8470 Br  0  0  0  0  0  0  0  0  0  0  0  0
   45.2820   10.6180    3.8450 S   0  0  0  0  0  0  0  0  0  0  0  0
   44.1250   10.2100    5.1440 C   0  0  0  0  0  0  0  0  0  0  0  0
   43.7120    8.5560    5.5020 S   0  0  0  0  0  0  0  0  0  0  0  0
   42.5980    9.0580    6.7510 C   0  0  0  0  0  0  0  0  0  0  0  0
   42.5280   10.4240    6.8360 C   0  0  0  0  0  0  0  0  0  0  0  0
   43.3990   11.0810    5.9140 C   0  0  0  0  0  0  0  0  0  0  0  0
   38.0530   18.7730   -0.2940 H   0  0  0  0  0  0  0  0  0  0  0  0
   39.7220   17.2980    0.8570 H   0  0  0  0  0  0  0  0  0  0  0  0
   39.3960   15.3240    3.1510 H   0  0  0  0  0  0  0  0  0  0  0  0
   38.7110   13.9550    2.3410 H   0  0  0  0  0  0  0  0  0  0  0  0
   43.4170   11.8900    0.2800 H   0  0  0  0  0  0  0  0  0  0  0  0
   41.7520   11.7660    0.7760 H   0  0  0  0  0  0  0  0  0  0  0  0
   42.3870   11.3180    3.1000 H   0  0  0  0  0  0  0  0  0  0  0  0
   43.2450   10.2420    2.0300 H   0  0  0  0  0  0  0  0  0  0  0  0
   45.5410   13.4590    3.4180 H   0  0  0  0  0  0  0  0  0  0  0  0
   43.9160   13.4240    4.0440 H   0  0  0  0  0  0  0  0  0  0  0  0
   44.0280   15.1110    2.2440 H   0  0  0  0  0  0  0  0  0  0  0  0
   44.8200   13.9840    1.1760 H   0  0  0  0  0  0  0  0  0  0  0  0
   44.0400   14.1000   -1.1300 H   0  0  0  0  0  0  0  0  0  0  0  0
   40.5020   15.6520   -3.0370 H   0  0  0  0  0  0  0  0  0  0  0  0
   39.2250   15.4180   -0.9390 H   0  0  0  0  0  0  0  0  0  0  0  0
   36.5380   14.6100    1.9520 H   0  0  0  0  0  0  0  0  0  0  0  0
   34.8960   16.1360    0.9700 H   0  0  0  0  0  0  0  0  0  0  0  0
   42.0800    8.3140    7.3390 H   0  0  0  0  0  0  0  0  0  0  0  0
   41.9020   10.9690    7.5260 H   0  0  0  0  0  0  0  0  0  0  0  0
   43.4780   12.1570    5.8510 H   0  0  0  0  0  0  0  0  0  0  0  0
   35.6320   18.2410   -0.1690 H   0  0  0  0  0  0  0  0  0  0  0  0
  1  7  1  0  0  0  0
  1  8  1  0  0  0  0
  1 19  1  0  0  0  0
  2 11  1  0  0  0  0
  2 12  1  0  0  0  0
  2 26  1  0  0  0  0
  3  4  1  0  0  0  0
  3 21  2  0  0  0  0
  3 52  1  0  0  0  0
  4  5  2  0  0  0  0
  4 32  1  0  0  0  0
  5  6  1  0  0  0  0
  5 33  1  0  0  0  0
  6  7  1  0  0  0  0
  6 20  2  0  0  0  0
  7 34  1  0  0  0  0
  7 35  1  0  0  0  0
  8  9  1  0  0  0  0
  8 22  2  0  0  0  0
  9 10  1  0  0  0  0
  9 13  1  0  0  0  0
  9 14  1  0  0  0  0
 10 11  1  0  0  0  0
 10 36  1  0  0  0  0
 10 37  1  0  0  0  0
 11 38  1  0  0  0  0
 11 39  1  0  0  0  0
 12 13  1  0  0  0  0
 12 40  1  0  0  0  0
 12 41  1  0  0  0  0
 13 42  1  0  0  0  0
 13 43  1  0  0  0  0
 14 15  1  0  0  0  0
 14 19  2  0  0  0  0
 15 16  2  0  0  0  0
 15 44  1  0  0  0  0
 16 17  1  0  0  0  0
 16 25  1  0  0  0  0
 17 18  2  0  0  0  0
 17 45  1  0  0  0  0
 18 19  1  0  0  0  0
 18 46  1  0  0  0  0
 20 21  1  0  0  0  0
 20 47  1  0  0  0  0
 21 48  1  0  0  0  0
 23 26  2  0  0  0  0
 24 26  2  0  0  0  0
 26 27  1  0  0  0  0
 27 28  1  0  0  0  0
 27 31  2  0  0  0  0
 28 29  1  0  0  0  0
 29 30  2  0  0  0  0
 29 49  1  0  0  0  0
 30 31  1  0  0  0  0
 30 50  1  0  0  0  0
 31 51  1  0  0  0  0
M  END
$$$$
