../datasets/input/SCHR_THROMBIN/poses/throm_lig7a/ligand.pdb
 OpenBabel02211915413D

 58 60  0  0  1  0  0  0  0  0999 V2000
   18.3710  -13.1880   21.6150 N   0  0  0  0  0  0  0  0  0  0  0  0
   18.2380  -11.8960   20.9140 C   0  0  2  0  0  0  0  0  0  0  0  0
   17.4530  -13.7000   22.4740 C   0  0  0  0  0  0  0  0  0  0  0  0
   16.4560  -13.0650   22.8230 O   0  0  0  0  0  0  0  0  0  0  0  0
   16.8820  -11.7250   20.1930 C   0  0  0  0  0  0  0  0  0  0  0  0
   16.5600  -12.5200   19.3090 O   0  0  0  0  0  0  0  0  0  0  0  0
   19.3960  -11.8810   19.9000 C   0  0  0  0  0  0  0  0  0  0  0  0
   17.6440  -15.1070   23.0720 C   0  0  2  0  0  0  0  0  0  0  0  0
   16.1070  -10.7040   20.5770 N   0  0  0  0  0  0  0  0  0  0  0  0
   20.4400  -12.8260   20.4500 C   0  0  0  0  0  0  0  0  0  0  0  0
   16.3780  -15.8520   22.9560 N   0  3  0  0  0  0  0  0  0  0  0  0
   18.0890  -15.0600   24.5540 C   0  0  0  0  0  0  0  0  0  0  0  0
   14.7610  -10.4180   20.0950 C   0  0  0  0  0  0  0  0  0  0  0  0
   19.6520  -13.8250   21.2880 C   0  0  0  0  0  0  0  0  0  0  0  0
   19.5200  -14.6010   24.7760 C   0  0  0  0  0  0  0  0  0  0  0  0
   13.6480  -10.9030   21.0220 C   0  0  0  0  0  0  0  0  0  0  0  0
   19.7810  -13.3160   25.2860 C   0  0  0  0  0  0  0  0  0  0  0  0
   13.1230  -12.2220   20.9620 C   0  0  0  0  0  0  0  0  0  0  0  0
   21.0970  -12.8490   25.4250 C   0  0  0  0  0  0  0  0  0  0  0  0
   12.0910  -12.6030   21.8420 C   0  0  0  0  0  0  0  0  0  0  0  0
   22.1730  -13.6820   25.0740 C   0  0  0  0  0  0  0  0  0  0  0  0
   11.5690  -11.6940   22.7740 C   0  0  0  0  0  0  0  0  0  0  0  0
   21.9270  -14.9880   24.6080 C   0  0  0  0  0  0  0  0  0  0  0  0
   12.0840  -10.3890   22.8430 C   0  0  0  0  0  0  0  0  0  0  0  0
   20.6030  -15.4480   24.4580 C   0  0  0  0  0  0  0  0  0  0  0  0
   13.1190   -9.9960   21.9700 C   0  0  0  0  0  0  0  0  0  0  0  0
   13.6360  -13.2670   19.9910 C   0  0  0  0  0  0  0  0  0  0  0  0
   11.5360   -9.4380   23.8830 C   0  0  0  0  0  0  0  0  0  0  0  0
   18.3730  -11.0980   21.6440 H   0  0  0  0  0  0  0  0  0  0  0  0
   19.0780  -12.2390   18.9190 H   0  0  0  0  0  0  0  0  0  0  0  0
   19.8050  -10.8860   19.7620 H   0  0  0  0  0  0  0  0  0  0  0  0
   18.3680  -15.6850   22.5000 H   0  0  0  0  0  0  0  0  0  0  0  0
   16.5080  -10.0400   21.2350 H   0  0  0  0  0  0  0  0  0  0  0  0
   21.0270  -13.3040   19.6660 H   0  0  0  0  0  0  0  0  0  0  0  0
   21.1300  -12.2770   21.0930 H   0  0  0  0  0  0  0  0  0  0  0  0
   16.4830  -16.7790   23.3420 H   0  0  0  0  0  0  0  0  0  0  0  0
   15.6590  -15.3490   23.4620 H   0  0  0  0  0  0  0  0  0  0  0  0
   16.1120  -15.9120   21.9850 H   0  0  0  0  0  0  0  0  0  0  0  0
   17.4090  -14.4270   25.1270 H   0  0  0  0  0  0  0  0  0  0  0  0
   17.9990  -16.0530   24.9950 H   0  0  0  0  0  0  0  0  0  0  0  0
   14.6770   -9.3350   20.0090 H   0  0  0  0  0  0  0  0  0  0  0  0
   14.6110  -10.7990   19.0850 H   0  0  0  0  0  0  0  0  0  0  0  0
   20.2230  -14.0970   22.1730 H   0  0  0  0  0  0  0  0  0  0  0  0
   19.4700  -14.7290   20.7060 H   0  0  0  0  0  0  0  0  0  0  0  0
   18.9750  -12.6790   25.5920 H   0  0  0  0  0  0  0  0  0  0  0  0
   21.2660  -11.8560   25.8140 H   0  0  0  0  0  0  0  0  0  0  0  0
   11.6930  -13.6070   21.8140 H   0  0  0  0  0  0  0  0  0  0  0  0
   23.1870  -13.3280   25.1810 H   0  0  0  0  0  0  0  0  0  0  0  0
   22.7560  -15.6340   24.3610 H   0  0  0  0  0  0  0  0  0  0  0  0
   20.4260  -16.4450   24.0810 H   0  0  0  0  0  0  0  0  0  0  0  0
   13.5200   -8.9950   22.0330 H   0  0  0  0  0  0  0  0  0  0  0  0
   10.7770  -12.0110   23.4400 H   0  0  0  0  0  0  0  0  0  0  0  0
   12.9010  -14.0600   19.8490 H   0  0  0  0  0  0  0  0  0  0  0  0
   13.8510  -12.8510   19.0090 H   0  0  0  0  0  0  0  0  0  0  0  0
   14.5410  -13.7250   20.3900 H   0  0  0  0  0  0  0  0  0  0  0  0
   11.8360   -8.4090   23.6900 H   0  0  0  0  0  0  0  0  0  0  0  0
   10.4480   -9.4990   23.9130 H   0  0  0  0  0  0  0  0  0  0  0  0
   11.8980   -9.7210   24.8680 H   0  0  0  0  0  0  0  0  0  0  0  0
  1  2  1  0  0  0  0
  1  3  1  0  0  0  0
  1 14  1  0  0  0  0
  2  5  1  0  0  0  0
  2  7  1  0  0  0  0
  2 29  1  1  0  0  0
  3  4  2  0  0  0  0
  3  8  1  0  0  0  0
  5  6  2  0  0  0  0
  5  9  1  0  0  0  0
  7 10  1  0  0  0  0
  7 30  1  0  0  0  0
  7 31  1  0  0  0  0
  8 11  1  0  0  0  0
  8 12  1  0  0  0  0
  8 32  1  6  0  0  0
  9 13  1  0  0  0  0
  9 33  1  0  0  0  0
 10 14  1  0  0  0  0
 10 34  1  0  0  0  0
 10 35  1  0  0  0  0
 11 36  1  0  0  0  0
 11 37  1  0  0  0  0
 11 38  1  0  0  0  0
 12 15  1  0  0  0  0
 12 39  1  0  0  0  0
 12 40  1  0  0  0  0
 13 16  1  0  0  0  0
 13 41  1  0  0  0  0
 13 42  1  0  0  0  0
 14 43  1  0  0  0  0
 14 44  1  0  0  0  0
 15 17  2  0  0  0  0
 15 25  1  0  0  0  0
 16 18  2  0  0  0  0
 16 26  1  0  0  0  0
 17 19  1  0  0  0  0
 17 45  1  0  0  0  0
 18 20  1  0  0  0  0
 18 27  1  0  0  0  0
 19 21  2  0  0  0  0
 19 46  1  0  0  0  0
 20 22  2  0  0  0  0
 20 47  1  0  0  0  0
 21 23  1  0  0  0  0
 21 48  1  0  0  0  0
 22 24  1  0  0  0  0
 22 52  1  0  0  0  0
 23 25  2  0  0  0  0
 23 49  1  0  0  0  0
 24 26  2  0  0  0  0
 24 28  1  0  0  0  0
 25 50  1  0  0  0  0
 26 51  1  0  0  0  0
 27 53  1  0  0  0  0
 27 54  1  0  0  0  0
 27 55  1  0  0  0  0
 28 56  1  0  0  0  0
 28 57  1  0  0  0  0
 28 58  1  0  0  0  0
M  CHG  1  11   1
M  END
