../datasets/input/THROMBIN/poses/3H/ligand.pdb
 OpenBabel03111910183D

 52 54  0  0  1  0  0  0  0  0999 V2000
   38.4640   20.9700   39.7890 C   0  0  0  0  0  0  0  0  0  0  0  0
   38.1040   22.3420   39.1820 C   0  0  0  0  0  0  0  0  0  0  0  0
   37.1650   22.9350   39.6800 O   0  0  0  0  0  0  0  0  0  0  0  0
   38.7680   22.8130   38.0400 N   0  0  0  0  0  0  0  0  0  0  0  0
   38.5040   24.0630   37.4110 C   0  0  2  0  0  0  0  0  0  0  0  0
   37.0480   24.2020   36.9530 C   0  0  0  0  0  0  0  0  0  0  0  0
   36.6130   23.3290   36.2110 O   0  0  0  0  0  0  0  0  0  0  0  0
   39.5840   24.1540   36.3420 C   0  0  0  0  0  0  0  0  0  0  0  0
   40.7540   23.3180   36.7660 C   0  0  0  0  0  0  0  0  0  0  0  0
   39.9130   22.1900   37.3800 C   0  0  0  0  0  0  0  0  0  0  0  0
   36.4320   25.3470   37.2920 N   0  0  0  0  0  0  0  0  0  0  0  0
   35.1210   25.6550   36.9260 C   0  0  0  0  0  0  0  0  0  0  0  0
   34.1640   25.6700   38.0810 C   0  0  0  0  0  0  0  0  0  0  0  0
   33.2200   24.6160   38.1930 C   0  0  0  0  0  0  0  0  0  0  0  0
   32.2730   24.5500   39.2800 C   0  0  0  0  0  0  0  0  0  0  0  0
   32.3330   25.6910   40.1560 C   0  0  0  0  0  0  0  0  0  0  0  0
   33.3140   26.6530   40.0850 C   0  0  0  0  0  0  0  0  0  0  0  0
   34.2270   26.6860   39.0920 C   0  0  0  0  0  0  0  0  0  0  0  0
   33.1230   27.9830   41.2280 C   0  0  0  0  0  0  0  0  0  0  0  0
   41.3050   19.8010   42.2330 C   0  0  0  0  0  0  0  0  0  0  0  0
   39.8250   19.9490   41.6820 C   0  0  0  0  0  0  0  0  0  0  0  0
   39.9120   20.8220   40.3770 C   0  0  0  0  0  0  0  0  0  0  0  0
   40.4510   22.1460   40.7810 C   0  0  0  0  0  0  0  0  0  0  0  0
   41.8840   22.0700   41.2880 C   0  0  0  0  0  0  0  0  0  0  0  0
   41.8210   21.2110   42.5520 C   0  0  0  0  0  0  0  0  0  0  0  0
   38.4090   20.1400   39.0820 H   0  0  0  0  0  0  0  0  0  0  0  0
   38.6860   24.8180   38.1800 H   0  0  0  0  0  0  0  0  0  0  0  0
   39.3240   23.9770   35.2960 H   0  0  0  0  0  0  0  0  0  0  0  0
   39.8520   25.2040   36.4790 H   0  0  0  0  0  0  0  0  0  0  0  0
   41.3730   22.9360   35.9510 H   0  0  0  0  0  0  0  0  0  0  0  0
   41.3730   23.7400   37.5600 H   0  0  0  0  0  0  0  0  0  0  0  0
   40.5150   21.5530   38.0340 H   0  0  0  0  0  0  0  0  0  0  0  0
   39.4200   21.5630   36.6330 H   0  0  0  0  0  0  0  0  0  0  0  0
   36.8620   26.0100   37.9190 H   0  0  0  0  0  0  0  0  0  0  0  0
   35.0900   26.5940   36.3670 H   0  0  0  0  0  0  0  0  0  0  0  0
   34.8500   24.9080   36.1760 H   0  0  0  0  0  0  0  0  0  0  0  0
   33.1700   23.7690   37.5140 H   0  0  0  0  0  0  0  0  0  0  0  0
   31.3800   23.9300   39.2900 H   0  0  0  0  0  0  0  0  0  0  0  0
   31.5450   25.9370   40.8630 H   0  0  0  0  0  0  0  0  0  0  0  0
   34.8550   27.5720   39.0420 H   0  0  0  0  0  0  0  0  0  0  0  0
   37.7100   20.7240   40.5400 H   0  0  0  0  0  0  0  0  0  0  0  0
   41.9540   19.2230   41.5720 H   0  0  0  0  0  0  0  0  0  0  0  0
   41.2220   19.1840   43.1300 H   0  0  0  0  0  0  0  0  0  0  0  0
   39.1150   20.4530   42.3410 H   0  0  0  0  0  0  0  0  0  0  0  0
   39.4020   18.9580   41.5050 H   0  0  0  0  0  0  0  0  0  0  0  0
   40.5730   20.3710   39.6350 H   0  0  0  0  0  0  0  0  0  0  0  0
   40.4420   22.7960   39.9040 H   0  0  0  0  0  0  0  0  0  0  0  0
   39.8470   22.6970   41.5050 H   0  0  0  0  0  0  0  0  0  0  0  0
   42.4910   21.6810   40.4680 H   0  0  0  0  0  0  0  0  0  0  0  0
   42.2440   23.0910   41.4320 H   0  0  0  0  0  0  0  0  0  0  0  0
   41.2190   21.7840   43.2610 H   0  0  0  0  0  0  0  0  0  0  0  0
   42.8080   21.0790   43.0000 H   0  0  0  0  0  0  0  0  0  0  0  0
  1 26  1  0  0  0  0
  1  2  1  0  0  0  0
  1 22  1  0  0  0  0
  1 41  1  0  0  0  0
  2  4  1  0  0  0  0
  2  3  2  0  0  0  0
  4 10  1  0  0  0  0
  4  5  1  0  0  0  0
  5  8  1  0  0  0  0
  5  6  1  0  0  0  0
  5 27  1  1  0  0  0
  6  7  2  0  0  0  0
  6 11  1  0  0  0  0
  8 28  1  0  0  0  0
  8 29  1  0  0  0  0
  8  9  1  0  0  0  0
  9 30  1  0  0  0  0
  9 10  1  0  0  0  0
  9 31  1  0  0  0  0
 10 33  1  0  0  0  0
 10 32  1  0  0  0  0
 11 12  1  0  0  0  0
 11 34  1  0  0  0  0
 12 36  1  0  0  0  0
 12 35  1  0  0  0  0
 12 13  1  0  0  0  0
 13 14  2  0  0  0  0
 13 18  1  0  0  0  0
 14 37  1  0  0  0  0
 14 15  1  0  0  0  0
 15 38  1  0  0  0  0
 15 16  2  0  0  0  0
 16 17  1  0  0  0  0
 16 39  1  0  0  0  0
 17 18  2  0  0  0  0
 17 19  1  0  0  0  0
 18 40  1  0  0  0  0
 20 42  1  0  0  0  0
 20 21  1  0  0  0  0
 20 25  1  0  0  0  0
 20 43  1  0  0  0  0
 21 22  1  0  0  0  0
 21 45  1  0  0  0  0
 21 44  1  0  0  0  0
 22 46  1  0  0  0  0
 22 23  1  0  0  0  0
 23 47  1  0  0  0  0
 23 24  1  0  0  0  0
 23 48  1  0  0  0  0
 24 49  1  0  0  0  0
 24 50  1  0  0  0  0
 24 25  1  0  0  0  0
 25 52  1  0  0  0  0
 25 51  1  0  0  0  0
M  END
$$$$
