../datasets/input/HSP90_1/poses/HSP90_83/ligand.pdb
 OpenBabel02211915413D

 26 28  0  0  0  0  0  0  0  0999 V2000
   -2.4950   10.1200   24.4150 N   0  0  0  0  0  0  0  0  0  0  0  0
   -3.4830   12.0670   23.6990 N   0  0  0  0  0  0  0  0  0  0  0  0
   -1.2230   12.1120   24.1180 N   0  0  0  0  0  0  0  0  0  0  0  0
    7.1750   11.4630   24.2110 C   0  0  0  0  0  0  0  0  0  0  0  0
    6.0130   12.4480   24.3600 C   0  0  0  0  0  0  0  0  0  0  0  0
    3.6120   12.4180   24.4620 C   0  0  0  0  0  0  0  0  0  0  0  0
    3.5300   13.8230   24.6180 C   0  0  0  0  0  0  0  0  0  0  0  0
    2.2760   14.4480   24.7350 C   0  0  0  0  0  0  0  0  0  0  0  0
    1.0970   13.6820   24.6970 C   0  0  0  0  0  0  0  0  0  0  0  0
    1.1470   12.2790   24.5390 C   0  0  0  0  0  0  0  0  0  0  0  0
    2.4190   11.6680   24.4260 C   0  0  0  0  0  0  0  0  0  0  0  0
   -0.0940   11.4750   24.5080 C   0  0  0  0  0  0  0  0  0  0  0  0
   -0.1330   10.1090   24.8690 C   0  0  0  0  0  0  0  0  0  0  0  0
   -1.3820    9.4560   24.7970 C   0  0  0  0  0  0  0  0  0  0  0  0
   -2.3500   11.4030   24.0940 C   0  0  0  0  0  0  0  0  0  0  0  0
   -1.5480    8.0390   25.1630 C   0  0  0  0  0  0  0  0  0  0  0  0
   -1.3970    7.0510   24.1660 C   0  0  0  0  0  0  0  0  0  0  0  0
   -1.5440    5.6840   24.4700 C   0  0  0  0  0  0  0  0  0  0  0  0
   -1.8500    5.2870   25.7840 C   0  0  0  0  0  0  0  0  0  0  0  0
   -2.0120    6.2600   26.7870 C   0  0  0  0  0  0  0  0  0  0  0  0
   -1.8660    7.6290   26.4830 C   0  0  0  0  0  0  0  0  0  0  0  0
    4.7930   11.7180   24.3430 O   0  0  0  0  0  0  0  0  0  0  0  0
   -2.0310    3.6140   26.1630 Cl  0  0  0  0  0  0  0  0  0  0  0  0
   -2.1070    8.7830   27.7480 Cl  0  0  0  0  0  0  0  0  0  0  0  0
   -4.3570   11.5700   23.6160 H   0  0  0  0  0  0  0  0  0  0  0  0
   -3.4270   13.0280   23.3990 H   0  0  0  0  0  0  0  0  0  0  0  0
  1 15  2  0  0  0  0
  1 14  1  0  0  0  0
  2 26  1  0  0  0  0
  2 25  1  0  0  0  0
  2 15  1  0  0  0  0
  3 15  1  0  0  0  0
  3 12  2  0  0  0  0
  4  5  1  0  0  0  0
  5 22  1  0  0  0  0
  6 22  1  0  0  0  0
  6 11  2  0  0  0  0
  6  7  1  0  0  0  0
  7  8  2  0  0  0  0
  8  9  1  0  0  0  0
  9 10  2  0  0  0  0
 10 11  1  0  0  0  0
 10 12  1  0  0  0  0
 12 13  1  0  0  0  0
 13 14  2  0  0  0  0
 14 16  1  0  0  0  0
 16 17  2  0  0  0  0
 16 21  1  0  0  0  0
 17 18  1  0  0  0  0
 18 19  2  0  0  0  0
 19 23  1  0  0  0  0
 19 20  1  0  0  0  0
 20 21  2  0  0  0  0
 21 24  1  0  0  0  0
M  END
